sim-outorder -config xscale.cfg /afs/nd.edu/coursefa.12/cse/cse30321.01/Labs/mibench/rijndael/rijndael.arm /afs/nd.edu/coursefa.12/cse/cse30321.01/Labs/mibench/rijndael/getty.encrypted.pdf ./getty.encrypted_xscale.pdf d 11110000111100001111000011110000
