sim-outorder: SimpleScalar/ARM Tool Set version 3.0 of November, 2000.
Copyright (c) 1994-2000 by Todd M. Austin.  All Rights Reserved.
This version of SimpleScalar is licensed for academic non-commercial use only.

sim: command line: sim-outorder -config sa1core.cfg /afs/nd.edu/coursefa.12/cse/cse30321.01/Labs/mibench/patricia/patricia.arm /afs/nd.edu/coursefa.12/cse/cse30321.01/Labs/mibench/patricia/small.udp 

sim: simulation started @ Sat Sep  1 15:10:12 2012, options follow:

sim-outorder: This simulator implements a very detailed out-of-order issue
superscalar processor with a two-level memory system and speculative
execution support.  This simulator is a performance simulator, tracking the
latency of all pipeline operations.

# -config                     # load configuration from a file
# -dumpconfig                 # dump configuration to a file
# -h                    false # print help message    
# -v                    false # verbose operation     
# -d                    false # enable debug message  
# -i                    false # start in Dlite debugger
-seed                       1 # random number generator seed (0 for timer seed)
# -q                    false # initialize and terminate immediately
# -chkpt               <null> # restore EIO trace execution from <fname>
# -redir:sim      sa1core.txt # redirect simulator output to file (non-interactive only)
# -redir:prog          <null> # redirect simulated program output to file
-nice                       0 # simulator scheduling priority
-max:inst                   0 # maximum number of inst's to execute
# -ptracepipe               0 # The pipe for the ptrace communications
-profile                false # look for areas with significant IPCs
-fastfwd                    0 # number of insts skipped before timing starts
# -ptrace              <null> # generate pipetrace, i.e., <fname|stdout|stderr> <range>
-fetch:ifqsize              8 # instruction fetch queue size (in insts)
-fetch:mplat             9999 # extra branch mis-prediction latency
-fetch:speed                1 # speed of front-end of machine relative to execution core
-bpred               nottaken # branch predictor type {nottaken|taken|perfect|bimod|2lev|comb}
-bpred:bimod     2048 # bimodal predictor config (<table size>)
-bpred:2lev      1 1024 8 0 # 2-level predictor config (<l1size> <l2size> <hist_size> <xor>)
-bpred:comb      1024 # combining predictor config (<meta_table_size>)
-bpred:ras                  8 # return address stack size (0 for no return stack)
-bpred:btb       512 4 # BTB config (<num_sets> <associativity>)
# -bpred:spec_update       <null> # speculative predictors update in {ID|WB} (default non-spec)
-decode:width               1 # instruction decode B/W (insts/cycle)
-issue:width                2 # instruction issue B/W (insts/cycle)
-issue:inorder           true # run pipeline with in-order issue
-issue:wrongpath         true # issue instructions down wrong execution paths
-commit:width               2 # instruction commit B/W (insts/cycle)
-ruu:size                   4 # register update unit (RUU) size
-lsq:size                   4 # load/store queue (LSQ) size
-lsq:perfect            false # perfect memory disambiguation
-cache:dl1       dl1:16:32:32:f # l1 data cache config, i.e., {<config>|none}
-cache:dl1lat               1 # l1 data cache hit latency (in cycles)
-cache:dl2               none # l2 data cache config, i.e., {<config>|none}
-cache:dl2lat               6 # l2 data cache hit latency (in cycles)
-cache:il1       il1:16:32:32:f # l1 inst cache config, i.e., {<config>|dl1|dl2|none}
-cache:il1lat               1 # l1 instruction cache hit latency (in cycles)
-cache:il2               none # l2 instruction cache config, i.e., {<config>|dl2|none}
-cache:il2lat               6 # l2 instruction cache hit latency (in cycles)
-cache:flush            false # flush caches on system calls
-cache:icompress        false # convert 64-bit inst addresses to 32-bit inst equivalents
-mem:lat         64 1 # memory access latency (<first_chunk> <inter_chunk>)
-mem:width                  4 # memory access bus width (in bytes)
-mem:pipelined          false # memory accesses are fully pipelined
-tlb:itlb        itlb:32:4096:32:f # instruction TLB config, i.e., {<config>|none}
-tlb:dtlb        dtlb:32:4096:32:f # data TLB config, i.e., {<config>|none}
-tlb:lat                   30 # inst/data TLB miss latency (in cycles)
-res:ialu                   1 # total number of integer ALU's available
-res:imult                  1 # total number of integer multiplier/dividers available
-res:memport                1 # total number of memory system ports available (to CPU)
-res:fpalu                  1 # total number of floating point ALU's available
-res:fpmult                 1 # total number of floating point multiplier/dividers available
# -pcstat              <null> # profile stat(s) against text addr's (mult uses ok)
-bugcompat              false # operate in backward-compatible bugs mode (for testing only)

  Pipetrace range arguments are formatted as follows:

    {{@|#}<start>}:{{@|#|+}<end>}

  Both ends of the range are optional, if neither are specified, the entire
  execution is traced.  Ranges that start with a `@' designate an address
  range to be traced, those that start with an `#' designate a cycle count
  range.  All other range values represent an instruction count range.  The
  second argument, if specified with a `+', indicates a value relative
  to the first argument, e.g., 1000:+100 == 1000:1100.  Program symbols may
  be used in all contexts.

    Examples:   -ptrace FOO.trc #0:#1000
                -ptrace BAR.trc @2000:
                -ptrace BLAH.trc :1500
                -ptrace UXXE.trc :
                -ptrace FOOBAR.trc @main:+278

  Branch predictor configuration examples for 2-level predictor:
    Configurations:   N, M, W, X
      N   # entries in first level (# of shift register(s))
      W   width of shift register(s)
      M   # entries in 2nd level (# of counters, or other FSM)
      X   (yes-1/no-0) xor history and address for 2nd level index
    Sample predictors:
      GAg     : 1, W, 2^W, 0
      GAp     : 1, W, M (M > 2^W), 0
      PAg     : N, W, 2^W, 0
      PAp     : N, W, M (M == 2^(N+W)), 0
      gshare  : 1, W, 2^W, 1
  Predictor `comb' combines a bimodal and a 2-level predictor.

  The cache config parameter <config> has the following format:

    <name>:<nsets>:<bsize>:<assoc>:<repl>

    <name>   - name of the cache being defined
    <nsets>  - number of sets in the cache
    <bsize>  - block size of the cache
    <assoc>  - associativity of the cache
    <repl>   - block replacement strategy, 'l'-LRU, 'f'-FIFO, 'r'-random

    Examples:   -cache:dl1 dl1:4096:32:1:l
                -dtlb dtlb:128:4096:32:r

  Cache levels can be unified by pointing a level of the instruction cache
  hierarchy at the data cache hiearchy using the "dl1" and "dl2" cache
  configuration arguments.  Most sensible combinations are supported, e.g.,

    A unified l2 cache (il2 is pointed at dl2):
      -cache:il1 il1:128:64:1:l -cache:il2 dl2
      -cache:dl1 dl1:256:32:1:l -cache:dl2 ul2:1024:64:2:l

    Or, a fully unified cache hierarchy (il1 pointed at dl1):
      -cache:il1 dl1
      -cache:dl1 ul1:256:32:1:l -cache:dl2 ul2:1024:64:2:l



sim: ** starting performance simulation **
warning: unsupported ioctl call: ioctl(21505, ...)
warning: invalid/unimplemented syscall 91, PC=0x02008c50, winging it

sim: ** simulation statistics **
sim_num_insn              110641418 # total number of instructions committed
sim_num_uops              196525607 # total number of UOPs executed
sim_avg_flowlen              1.7762 # uops per instruction
sim_num_refs               45533918 # total number of loads and stores committed
sim_num_loads              27169036 # total number of loads committed
sim_num_stores         18364882.0000 # total number of stores committed
sim_num_branches           16547882 # total number of branches committed
sim_elapsed_time                209 # total simulation time in seconds
sim_inst_rate           529384.7751 # simulation speed (in insts/sec)
sim_total_insn            191913480 # total number of instructions executed
sim_total_refs             45624247 # total number of loads and stores executed
sim_total_loads            27230510 # total number of loads executed
sim_total_stores       18393737.0000 # total number of stores executed
sim_total_branches         17049069 # total number of branches executed
sim_cycle                 691973967 # total simulation time in cycles
sim_IPC                      0.1599 # instructions per cycle
sim_CPI                      6.2542 # cycles per instruction
sim_exec_BW                  0.2773 # total instructions (mis-spec + committed) per cycle
sim_IPB                      6.6861 # instruction per branch
IFQ_count                 468386875 # cumulative IFQ occupancy
IFQ_fcount                 15936046 # cumulative IFQ full count
ifq_occupancy                0.6769 # avg IFQ occupancy (insn's)
ifq_rate                     0.2773 # avg IFQ dispatch rate (insn/cycle)
ifq_latency                  2.4406 # avg IFQ occupant latency (cycle's)
ifq_full                     0.0230 # fraction of time (cycle's) IFQ was full
RUU_count                 456644722 # cumulative RUU occupancy
RUU_fcount                 22928466 # cumulative RUU full count
ruu_occupancy                0.6599 # avg RUU occupancy (insn's)
ruu_rate                     0.2773 # avg RUU dispatch rate (insn/cycle)
ruu_latency                  2.3794 # avg RUU occupant latency (cycle's)
ruu_full                     0.0331 # fraction of time (cycle's) RUU was full
LSQ_count                 142512382 # cumulative LSQ occupancy
LSQ_fcount                  4902555 # cumulative LSQ full count
lsq_occupancy                0.2060 # avg LSQ occupancy (insn's)
lsq_rate                     0.2773 # avg LSQ dispatch rate (insn/cycle)
lsq_latency                  0.7426 # avg LSQ occupant latency (cycle's)
lsq_full                     0.0071 # fraction of time (cycle's) LSQ was full
sim_slip                  770614818 # total number of slip cycles
avg_sim_slip                 6.9650 # the average slip between issue and retirement
bpred_nottaken.lookups     20984159 # total number of bpred lookups
bpred_nottaken.updates     16547882 # total number of updates
bpred_nottaken.addr_hits      5633592 # total number of address-predicted hits
bpred_nottaken.dir_hits      5633592 # total number of direction-predicted hits (includes addr-hits)
bpred_nottaken.misses      10914290 # total number of misses
bpred_nottaken.jr_hits            0 # total number of address-predicted hits for JR's
bpred_nottaken.jr_seen            0 # total number of JR's seen
bpred_nottaken.jr_non_ras_hits.PP            0 # total number of address-predicted hits for non-RAS JR's
bpred_nottaken.jr_non_ras_seen.PP            0 # total number of non-RAS JR's seen
bpred_nottaken.bpred_addr_rate    0.3404 # branch address-prediction rate (i.e., addr-hits/updates)
bpred_nottaken.bpred_dir_rate    0.3404 # branch direction-prediction rate (i.e., all-hits/updates)
bpred_nottaken.bpred_jr_rate <error: divide by zero> # JR address-prediction rate (i.e., JR addr-hits/JRs seen)
bpred_nottaken.bpred_jr_non_ras_rate.PP <error: divide by zero> # non-RAS JR addr-pred rate (ie, non-RAS JR hits/JRs seen)
bpred_nottaken.retstack_pushes            0 # total number of address pushed onto ret-addr stack
bpred_nottaken.retstack_pops            0 # total number of address popped off of ret-addr stack
bpred_nottaken.used_ras.PP            0 # total number of RAS predictions used
bpred_nottaken.ras_hits.PP            0 # total number of RAS hits
bpred_nottaken.ras_rate.PP <error: divide by zero> # RAS prediction rate (i.e., RAS hits/used RAS)
il1.accesses              165938009 # total number of accesses
il1.hits                  158095830 # total number of hits
il1.misses                  7842179 # total number of misses
il1.replacements            7841667 # total number of replacements
il1.writebacks                    0 # total number of writebacks
il1.invalidations                 0 # total number of invalidations
il1.miss_rate                0.0473 # miss rate (i.e., misses/ref)
il1.repl_rate                0.0473 # replacement rate (i.e., repls/ref)
il1.wb_rate                  0.0000 # writeback rate (i.e., wrbks/ref)
il1.inv_rate                 0.0000 # invalidation rate (i.e., invs/ref)
dl1.accesses               45300054 # total number of accesses
dl1.hits                   45262069 # total number of hits
dl1.misses                    37985 # total number of misses
dl1.replacements              37473 # total number of replacements
dl1.writebacks                23417 # total number of writebacks
dl1.invalidations                 0 # total number of invalidations
dl1.miss_rate                0.0008 # miss rate (i.e., misses/ref)
dl1.repl_rate                0.0008 # replacement rate (i.e., repls/ref)
dl1.wb_rate                  0.0005 # writeback rate (i.e., wrbks/ref)
dl1.inv_rate                 0.0000 # invalidation rate (i.e., invs/ref)
itlb.accesses             165938009 # total number of accesses
itlb.hits                 165937972 # total number of hits
itlb.misses                      37 # total number of misses
itlb.replacements                 0 # total number of replacements
itlb.writebacks                   0 # total number of writebacks
itlb.invalidations                0 # total number of invalidations
itlb.miss_rate               0.0000 # miss rate (i.e., misses/ref)
itlb.repl_rate               0.0000 # replacement rate (i.e., repls/ref)
itlb.wb_rate                 0.0000 # writeback rate (i.e., wrbks/ref)
itlb.inv_rate                0.0000 # invalidation rate (i.e., invs/ref)
dtlb.accesses              45417223 # total number of accesses
dtlb.hits                  45417032 # total number of hits
dtlb.misses                     191 # total number of misses
dtlb.replacements                 0 # total number of replacements
dtlb.writebacks                   0 # total number of writebacks
dtlb.invalidations                0 # total number of invalidations
dtlb.miss_rate               0.0000 # miss rate (i.e., misses/ref)
dtlb.repl_rate               0.0000 # replacement rate (i.e., repls/ref)
dtlb.wb_rate                 0.0000 # writeback rate (i.e., wrbks/ref)
dtlb.inv_rate                0.0000 # invalidation rate (i.e., invs/ref)
sim_invalid_addrs            207024 # total non-speculative bogus addresses seen (debug var)
ld_text_base           0x020000c0 # program text (code) segment base
ld_text_bound          0x0203b8ec # program text (code) segment bound
ld_text_size                 243756 # program text (code) size in bytes
ld_data_base           0x00001ee0 # program initialized data segment base
ld_data_bound          0x0204c0a4 # program initialized data segment bound
ld_data_size               33857988 # program init'ed `.data' and uninit'ed `.bss' size in bytes
ld_stack_base          0xc0000000 # program stack segment base (highest address in stack)
ld_stack_size                 16384 # program initial stack size
ld_prog_entry          0x020000e0 # program entry point (initial PC)
ld_environ_base        0xbfffc000 # program environment base address address
ld_target_big_endian              0 # target executable endian-ness, non-zero if big endian
mem.page_count                  225 # total number of pages allocated
mem.page_mem                   900k # total size of memory pages allocated
mem.ptab_misses                 225 # total first level page table misses
mem.ptab_accesses         672844102 # total page table accesses
mem.ptab_miss_rate           0.0000 # first level page table miss rate

