sim-outorder -config xscale.cfg /afs/nd.edu/coursefa.12/cse/cse30321.01/Labs/mibench/mad/madplay.arm /afs/nd.edu/coursefa.12/cse/cse30321.01/Labs/mibench/mad/small.mp3 -o ./small.wav
