sim-outorder -config xscale.cfg /afs/nd.edu/coursefa.12/cse/cse30321.01/Labs/mibench/rijndael/rijndael.arm /afs/nd.edu/coursefa.12/cse/cse30321.01/Labs/mibench/rijndael/getty.encrypted.txt ./getty.decrypted_xscale.txt d 11110000111100001111000011110000
