@ 0
<NTsim_num_insn>           0
<NTsim_cycle>           0
<sim_IPC><error: divide by zero>
@ 1
<NTsim_num_insn>           0
<NTsim_cycle>           1
<sim_IPC>      0.0000
@ 2
<NTsim_num_insn>           0
<NTsim_cycle>           2
<sim_IPC>      0.0000
@ 3
<NTsim_num_insn>           0
<NTsim_cycle>           3
<sim_IPC>      0.0000
@ 4
<NTsim_num_insn>           0
<NTsim_cycle>           4
<sim_IPC>      0.0000
@ 5
<NTsim_num_insn>           0
<NTsim_cycle>           5
<sim_IPC>      0.0000
@ 6
<NTsim_num_insn>           0
<NTsim_cycle>           6
<sim_IPC>      0.0000
@ 7
<NTsim_num_insn>           0
<NTsim_cycle>           7
<sim_IPC>      0.0000
@ 8
<NTsim_num_insn>           0
<NTsim_cycle>           8
<sim_IPC>      0.0000
@ 9
<NTsim_num_insn>           0
<NTsim_cycle>           9
<sim_IPC>      0.0000
@ 10
<NTsim_num_insn>           0
<NTsim_cycle>          10
<sim_IPC>      0.0000
@ 11
<NTsim_num_insn>           0
<NTsim_cycle>          11
<sim_IPC>      0.0000
@ 12
<NTsim_num_insn>           0
<NTsim_cycle>          12
<sim_IPC>      0.0000
@ 13
<NTsim_num_insn>           0
<NTsim_cycle>          13
<sim_IPC>      0.0000
@ 14
<NTsim_num_insn>           0
<NTsim_cycle>          14
<sim_IPC>      0.0000
@ 15
<NTsim_num_insn>           0
<NTsim_cycle>          15
<sim_IPC>      0.0000
@ 16
<NTsim_num_insn>           0
<NTsim_cycle>          16
<sim_IPC>      0.0000
@ 17
<NTsim_num_insn>           0
<NTsim_cycle>          17
<sim_IPC>      0.0000
@ 18
<NTsim_num_insn>           0
<NTsim_cycle>          18
<sim_IPC>      0.0000
@ 19
<NTsim_num_insn>           0
<NTsim_cycle>          19
<sim_IPC>      0.0000
@ 20
<NTsim_num_insn>           0
<NTsim_cycle>          20
<sim_IPC>      0.0000
@ 21
<NTsim_num_insn>           0
<NTsim_cycle>          21
<sim_IPC>      0.0000
@ 22
<NTsim_num_insn>           0
<NTsim_cycle>          22
<sim_IPC>      0.0000
@ 23
<NTsim_num_insn>           0
<NTsim_cycle>          23
<sim_IPC>      0.0000
@ 24
<NTsim_num_insn>           0
<NTsim_cycle>          24
<sim_IPC>      0.0000
@ 25
<NTsim_num_insn>           0
<NTsim_cycle>          25
<sim_IPC>      0.0000
@ 26
<NTsim_num_insn>           0
<NTsim_cycle>          26
<sim_IPC>      0.0000
@ 27
<NTsim_num_insn>           0
<NTsim_cycle>          27
<sim_IPC>      0.0000
@ 28
<NTsim_num_insn>           0
<NTsim_cycle>          28
<sim_IPC>      0.0000
@ 29
<NTsim_num_insn>           0
<NTsim_cycle>          29
<sim_IPC>      0.0000
@ 30
<NTsim_num_insn>           0
<NTsim_cycle>          30
<sim_IPC>      0.0000
@ 31
<NTsim_num_insn>           0
<NTsim_cycle>          31
<sim_IPC>      0.0000
@ 32
+ 0 0x000080d0 0x00000000 ldr  r12,[r15,#36]
* 0 IF 0x003 31 0x001
+ 1 0x000080d4 0x00000000 mov  r11,#0 (0 >>> 0)
* 1 IF 0x000 0 0x001
+ 2 0x000080d8 0x00000000 ldr  r1,[r13],#4
* 2 IF 0x000 0 0x001
+ 3 0x000080dc 0x00000000 mov  r2,r13
* 3 IF 0x000 0 0x001
<NTsim_num_insn>           0
<NTsim_cycle>          32
<sim_IPC>      0.0000
@ 33
* 0 DA 0x000 0 0x000
- 0
+ 4 0x000080d0 0x00000000 agen  tmp0,r15,36
* 4 DA 0x000 0 0x000
+ 5 0x000080d0 0x00000000 ldp  r12,[tmp0]
* 5 DA 0x000 0 0x000
* 1 DA 0x000 0 0x000
* 2 DA 0x000 0 0x000
- 2
+ 6 0x000080d8 0x00000000 ldp  r1,[r13]
* 6 DA 0x000 0 0x000
+ 7 0x000080d8 0x00000000 agen  r13,r13,4
* 7 DA 0x000 0 0x000
* 3 DA 0x000 0 0x000
<NTsim_num_insn>           4
<NTsim_cycle>          33
<sim_IPC>      0.1212
@ 34
* 6 EX 0x003 32 0x001
* 4 EX 0x010 32 0x001
* 1 EX 0x000 0 0x001
* 7 EX 0x010 32 0x001
<NTsim_num_insn>           4
<NTsim_cycle>          34
<sim_IPC>      0.1176
@ 35
* 7 WB 0x000 0 0x000
* 1 WB 0x000 0 0x000
* 4 WB 0x000 0 0x000
* 5 EX 0x003 30 0x002
* 3 EX 0x000 0 0x002
<NTsim_num_insn>           4
<NTsim_cycle>          35
<sim_IPC>      0.1143
@ 36
* 4 CT 0x000 0 0x000
- 4
* 3 WB 0x000 0 0x000
<NTsim_num_insn>           4
<NTsim_cycle>          36
<sim_IPC>      0.1111
@ 37
<NTsim_num_insn>           4
<NTsim_cycle>          37
<sim_IPC>      0.1081
@ 38
<NTsim_num_insn>           4
<NTsim_cycle>          38
<sim_IPC>      0.1053
@ 39
+ 8 0x000080e0 0x00000000 str  r2,[r13,-#4]!
* 8 IF 0x001 5 0x001
+ 9 0x000080e4 0x00000000 str  r0,[r13,-#4]!
* 9 IF 0x000 0 0x001
+ 10 0x000080e8 0x00000000 ldr  r0,[r15,#16]
* 10 IF 0x000 0 0x001
+ 11 0x000080ec 0x00000000 ldr  r3,[r15,#16]
* 11 IF 0x000 0 0x001
<NTsim_num_insn>           4
<NTsim_cycle>          39
<sim_IPC>      0.1026
@ 40
* 8 DA 0x000 0 0x000
- 8
+ 12 0x000080e0 0x00000000 agen  r13,r13,-4
* 12 DA 0x000 0 0x000
+ 13 0x000080e0 0x00000000 stp  r2,[r13]
* 13 DA 0x000 0 0x000
* 9 DA 0x000 0 0x000
- 9
+ 14 0x000080e4 0x00000000 agen  r13,r13,-4
* 14 DA 0x000 0 0x000
+ 15 0x000080e4 0x00000000 stp  r0,[r13]
* 15 DA 0x000 0 0x000
* 10 DA 0x000 0 0x000
- 10
+ 16 0x000080e8 0x00000000 agen  tmp0,r15,16
* 16 DA 0x000 0 0x000
+ 17 0x000080e8 0x00000000 ldp  r0,[tmp0]
* 17 DA 0x000 0 0x000
* 11 DA 0x000 0 0x000
- 11
+ 18 0x000080ec 0x00000000 agen  tmp0,r15,16
* 18 DA 0x000 0 0x000
+ 19 0x000080f0 0x00000000 str  r12,[r13,-#4]!
* 19 IF 0x000 0 0x001
+ 20 0x000080f4 0x00000000 bl  0x23b8
* 20 IF 0x000 0 0x001
<NTsim_num_insn>           8
<NTsim_cycle>          40
<sim_IPC>      0.2000
@ 41
* 12 EX 0x010 41 0x002
* 16 EX 0x010 41 0x002
* 18 EX 0x010 41 0x002
+ 21 0x000080ec 0x00000000 ldp  r3,[tmp0]
* 21 DA 0x000 0 0x000
* 19 DA 0x000 0 0x000
- 19
+ 22 0x000080f0 0x00000000 agen  r13,r13,-4
* 22 DA 0x000 0 0x000
+ 23 0x000080f0 0x00000000 stp  r12,[r13]
* 23 DA 0x000 0 0x000
* 20 DA 0x004 0 0x000
<NTsim_num_insn>          10
<NTsim_cycle>          41
<sim_IPC>      0.2439
@ 42
* 18 WB 0x000 0 0x000
* 16 WB 0x000 0 0x000
* 12 WB 0x000 0 0x000
* 13 WB 0x000 0 0x000
* 14 EX 0x010 0 0x002
* 20 EX 0x000 0 0x002
<NTsim_num_insn>          10
<NTsim_cycle>          42
<sim_IPC>      0.2381
@ 43
* 20 WB 0x000 0 0x000
* 14 WB 0x000 0 0x000
* 21 EX 0x003 32 0x001
* 17 EX 0x003 32 0x001
* 15 WB 0x000 0 0x000
* 22 EX 0x010 32 0x001
<NTsim_num_insn>          10
<NTsim_cycle>          43
<sim_IPC>      0.2326
@ 44
* 22 WB 0x000 0 0x000
<NTsim_num_insn>          10
<NTsim_cycle>          44
<sim_IPC>      0.2273
@ 45
<NTsim_num_insn>          10
<NTsim_cycle>          45
<sim_IPC>      0.2222
@ 46
<NTsim_num_insn>          10
<NTsim_cycle>          46
<sim_IPC>      0.2174
@ 47
<NTsim_num_insn>          10
<NTsim_cycle>          47
<sim_IPC>      0.2128
@ 48
<NTsim_num_insn>          10
<NTsim_cycle>          48
<sim_IPC>      0.2083
@ 49
<NTsim_num_insn>          10
<NTsim_cycle>          49
<sim_IPC>      0.2041
@ 50
<NTsim_num_insn>          10
<NTsim_cycle>          50
<sim_IPC>      0.2000
@ 51
<NTsim_num_insn>          10
<NTsim_cycle>          51
<sim_IPC>      0.1961
@ 52
<NTsim_num_insn>          10
<NTsim_cycle>          52
<sim_IPC>      0.1923
@ 53
<NTsim_num_insn>          10
<NTsim_cycle>          53
<sim_IPC>      0.1887
@ 54
<NTsim_num_insn>          10
<NTsim_cycle>          54
<sim_IPC>      0.1852
@ 55
<NTsim_num_insn>          10
<NTsim_cycle>          55
<sim_IPC>      0.1818
@ 56
<NTsim_num_insn>          10
<NTsim_cycle>          56
<sim_IPC>      0.1786
@ 57
<NTsim_num_insn>          10
<NTsim_cycle>          57
<sim_IPC>      0.1754
@ 58
<NTsim_num_insn>          10
<NTsim_cycle>          58
<sim_IPC>      0.1724
@ 59
<NTsim_num_insn>          10
<NTsim_cycle>          59
<sim_IPC>      0.1695
@ 60
<NTsim_num_insn>          10
<NTsim_cycle>          60
<sim_IPC>      0.1667
@ 61
<NTsim_num_insn>          10
<NTsim_cycle>          61
<sim_IPC>      0.1639
@ 62
<NTsim_num_insn>          10
<NTsim_cycle>          62
<sim_IPC>      0.1613
@ 63
<NTsim_num_insn>          10
<NTsim_cycle>          63
<sim_IPC>      0.1587
@ 64
<NTsim_num_insn>          10
<NTsim_cycle>          64
<sim_IPC>      0.1562
@ 65
* 5 WB 0x000 0 0x000
* 23 WB 0x000 0 0x000
<NTsim_num_insn>          10
<NTsim_cycle>          65
<sim_IPC>      0.1538
@ 66
* 5 CT 0x000 0 0x000
- 5
* 1 CT 0x000 0 0x000
- 1
* 6 WB 0x000 0 0x000
<NTsim_num_insn>          10
<NTsim_cycle>          66
<sim_IPC>      0.1515
@ 67
* 6 CT 0x000 0 0x000
- 6
* 7 CT 0x000 0 0x000
- 7
* 3 CT 0x000 0 0x000
- 3
* 12 CT 0x000 0 0x000
- 12
<NTsim_num_insn>          10
<NTsim_cycle>          67
<sim_IPC>      0.1493
@ 68
* 13 CT 0x000 0 0x000
- 13
* 14 CT 0x000 0 0x000
- 14
* 15 CT 0x003 0 0x000
- 15
* 16 CT 0x003 0 0x000
- 16
<NTsim_num_insn>          10
<NTsim_cycle>          68
<sim_IPC>      0.1471
@ 69
<NTsim_num_insn>          10
<NTsim_cycle>          69
<sim_IPC>      0.1449
@ 70
<NTsim_num_insn>          10
<NTsim_cycle>          70
<sim_IPC>      0.1429
@ 71
<NTsim_num_insn>          10
<NTsim_cycle>          71
<sim_IPC>      0.1408
@ 72
<NTsim_num_insn>          10
<NTsim_cycle>          72
<sim_IPC>      0.1389
@ 73
<NTsim_num_insn>          10
<NTsim_cycle>          73
<sim_IPC>      0.1370
@ 74
<NTsim_num_insn>          10
<NTsim_cycle>          74
<sim_IPC>      0.1351
@ 75
* 17 WB 0x000 0 0x000
* 21 WB 0x000 0 0x000
<NTsim_num_insn>          10
<NTsim_cycle>          75
<sim_IPC>      0.1333
@ 76
* 17 CT 0x000 0 0x000
- 17
* 18 CT 0x000 0 0x000
- 18
* 21 CT 0x000 0 0x000
- 21
* 22 CT 0x000 0 0x000
- 22
+ 24 0x0000a4ac 0x00000000 stmdb  r13!,{r4,r5,r6,r7,r8,r9,r10,r11,r14}
* 24 IF 0x003 31 0x001
+ 25 0x0000a4b0 0x00000000 sub  r13,r13,#456 (114 >>> 15)
* 25 IF 0x000 0 0x001
+ 26 0x0000a4b4 0x00000000 mov  r9,r0
* 26 IF 0x000 0 0x001
+ 27 0x0000a4b8 0x00000000 mov  r7,r1
* 27 IF 0x000 0 0x001
<NTsim_num_insn>          10
<NTsim_cycle>          76
<sim_IPC>      0.1316
@ 77
* 23 CT 0x003 0 0x000
- 23
* 20 CT 0x003 0 0x000
- 20
* 24 DA 0x000 0 0x000
- 24
+ 28 0x0000a4ac 0x00000000 agen  tmp1,r13,0
* 28 DA 0x000 0 0x000
+ 29 0x0000a4ac 0x00000000 agen  tmp0,tmp1,-36
* 29 DA 0x000 0 0x000
+ 30 0x0000a4ac 0x00000000 stp  r4,[tmp0]
* 30 DA 0x000 0 0x000
+ 31 0x0000a4ac 0x00000000 agen  r13,r13,-36
* 31 DA 0x000 0 0x000
+ 32 0x0000a4ac 0x00000000 agen  tmp0,tmp1,-32
* 32 DA 0x000 0 0x000
+ 33 0x0000a4ac 0x00000000 stp  r5,[tmp0]
* 33 DA 0x000 0 0x000
+ 34 0x0000a4ac 0x00000000 agen  tmp0,tmp1,-28
* 34 DA 0x000 0 0x000
+ 35 0x0000a4ac 0x00000000 stp  r6,[tmp0]
* 35 DA 0x000 0 0x000
+ 36 0x0000a4ac 0x00000000 agen  tmp0,tmp1,-24
* 36 DA 0x000 0 0x000
+ 37 0x0000a4ac 0x00000000 stp  r7,[tmp0]
* 37 DA 0x000 0 0x000
+ 38 0x0000a4ac 0x00000000 agen  tmp0,tmp1,-20
* 38 DA 0x000 0 0x000
+ 39 0x0000a4ac 0x00000000 stp  r8,[tmp0]
* 39 DA 0x000 0 0x000
+ 40 0x0000a4ac 0x00000000 agen  tmp0,tmp1,-16
* 40 DA 0x000 0 0x000
+ 41 0x0000a4ac 0x00000000 stp  r9,[tmp0]
* 41 DA 0x000 0 0x000
+ 42 0x0000a4ac 0x00000000 agen  tmp0,tmp1,-12
* 42 DA 0x000 0 0x000
+ 43 0x0000a4ac 0x00000000 stp  r10,[tmp0]
* 43 DA 0x000 0 0x000
+ 44 0x0000a4ac 0x00000000 agen  tmp0,tmp1,-8
* 44 DA 0x000 0 0x000
+ 45 0x0000a4ac 0x00000000 stp  r11,[tmp0]
* 45 DA 0x000 0 0x000
<NTsim_num_insn>          11
<NTsim_cycle>          77
<sim_IPC>      0.1429
@ 78
* 28 EX 0x010 78 0x001
* 31 EX 0x010 78 0x001
<NTsim_num_insn>          11
<NTsim_cycle>          78
<sim_IPC>      0.1410
@ 79
* 31 WB 0x000 0 0x000
* 28 WB 0x000 0 0x000
* 29 EX 0x010 79 0x001
* 32 EX 0x010 79 0x001
* 34 EX 0x010 79 0x001
* 36 EX 0x010 79 0x001
<NTsim_num_insn>          11
<NTsim_cycle>          79
<sim_IPC>      0.1392
@ 80
* 28 CT 0x000 0 0x000
- 28
* 36 WB 0x000 0 0x000
* 34 WB 0x000 0 0x000
* 32 WB 0x000 0 0x000
* 29 WB 0x000 0 0x000
* 30 WB 0x000 0 0x000
* 33 WB 0x000 0 0x000
* 35 WB 0x000 0 0x000
* 37 WB 0x000 0 0x000
<NTsim_num_insn>          11
<NTsim_cycle>          80
<sim_IPC>      0.1375
@ 81
* 29 CT 0x000 0 0x000
- 29
* 30 CT 0x003 0 0x000
- 30
* 31 CT 0x003 0 0x000
- 31
* 32 CT 0x000 0 0x000
- 32
* 38 EX 0x010 0 0x001
* 40 EX 0x010 0 0x001
* 42 EX 0x010 0 0x001
* 44 EX 0x010 0 0x001
+ 46 0x0000a4ac 0x00000000 agen  tmp0,tmp1,-4
* 46 DA 0x000 0 0x000
+ 47 0x0000a4ac 0x00000000 stp  r14,[tmp0]
* 47 DA 0x000 0 0x000
+ 48 0x0000a4bc 0x00000000 mov  r8,r2
* 48 IF 0x000 0 0x001
<NTsim_num_insn>          11
<NTsim_cycle>          81
<sim_IPC>      0.1358
@ 82
* 33 CT 0x003 0 0x000
- 33
* 34 CT 0x003 0 0x000
- 34
* 35 CT 0x003 0 0x000
- 35
* 36 CT 0x003 0 0x000
- 36
* 44 WB 0x000 0 0x000
* 42 WB 0x000 0 0x000
* 40 WB 0x000 0 0x000
* 38 WB 0x000 0 0x000
* 39 WB 0x000 0 0x000
* 41 WB 0x000 0 0x000
* 43 WB 0x000 0 0x000
* 45 WB 0x000 0 0x000
* 25 DA 0x000 0 0x000
* 26 DA 0x000 0 0x000
* 27 DA 0x000 0 0x000
* 48 DA 0x000 0 0x000
<NTsim_num_insn>          15
<NTsim_cycle>          82
<sim_IPC>      0.1829
@ 83
* 37 CT 0x003 0 0x000
- 37
* 38 CT 0x003 0 0x000
- 38
* 39 CT 0x003 0 0x000
- 39
* 40 CT 0x003 0 0x000
- 40
* 46 EX 0x010 0 0x001
* 25 EX 0x000 0 0x001
* 26 EX 0x000 0 0x001
* 27 EX 0x000 0 0x001
<NTsim_num_insn>          15
<NTsim_cycle>          83
<sim_IPC>      0.1807
@ 84
* 41 CT 0x003 0 0x000
- 41
* 42 CT 0x003 0 0x000
- 42
* 43 CT 0x003 0 0x000
- 43
* 44 CT 0x003 0 0x000
- 44
* 27 WB 0x000 0 0x000
* 26 WB 0x000 0 0x000
* 25 WB 0x000 0 0x000
* 46 WB 0x000 0 0x000
* 47 WB 0x000 0 0x000
* 48 EX 0x000 0 0x001
<NTsim_num_insn>          15
<NTsim_cycle>          84
<sim_IPC>      0.1786
@ 85
* 45 CT 0x003 0 0x000
- 45
* 46 CT 0x003 0 0x000
- 46
* 47 CT 0x003 0 0x000
- 47
* 25 CT 0x003 0 0x000
- 25
* 48 WB 0x000 0 0x000
<NTsim_num_insn>          15
<NTsim_cycle>          85
<sim_IPC>      0.1765
@ 86
* 26 CT 0x000 0 0x000
- 26
* 27 CT 0x000 0 0x000
- 27
* 48 CT 0x000 0 0x000
- 48
<NTsim_num_insn>          15
<NTsim_cycle>          86
<sim_IPC>      0.1744
@ 87
<NTsim_num_insn>          15
<NTsim_cycle>          87
<sim_IPC>      0.1724
@ 88
<NTsim_num_insn>          15
<NTsim_cycle>          88
<sim_IPC>      0.1705
@ 89
<NTsim_num_insn>          15
<NTsim_cycle>          89
<sim_IPC>      0.1685
@ 90
<NTsim_num_insn>          15
<NTsim_cycle>          90
<sim_IPC>      0.1667
@ 91
<NTsim_num_insn>          15
<NTsim_cycle>          91
<sim_IPC>      0.1648
@ 92
<NTsim_num_insn>          15
<NTsim_cycle>          92
<sim_IPC>      0.1630
@ 93
<NTsim_num_insn>          15
<NTsim_cycle>          93
<sim_IPC>      0.1613
@ 94
<NTsim_num_insn>          15
<NTsim_cycle>          94
<sim_IPC>      0.1596
@ 95
<NTsim_num_insn>          15
<NTsim_cycle>          95
<sim_IPC>      0.1579
@ 96
<NTsim_num_insn>          15
<NTsim_cycle>          96
<sim_IPC>      0.1562
@ 97
<NTsim_num_insn>          15
<NTsim_cycle>          97
<sim_IPC>      0.1546
@ 98
<NTsim_num_insn>          15
<NTsim_cycle>          98
<sim_IPC>      0.1531
@ 99
<NTsim_num_insn>          15
<NTsim_cycle>          99
<sim_IPC>      0.1515
@ 100
<NTsim_num_insn>          15
<NTsim_cycle>         100
<sim_IPC>      0.1500
@ 101
<NTsim_num_insn>          15
<NTsim_cycle>         101
<sim_IPC>      0.1485
@ 102
<NTsim_num_insn>          15
<NTsim_cycle>         102
<sim_IPC>      0.1471
@ 103
<NTsim_num_insn>          15
<NTsim_cycle>         103
<sim_IPC>      0.1456
@ 104
<NTsim_num_insn>          15
<NTsim_cycle>         104
<sim_IPC>      0.1442
@ 105
<NTsim_num_insn>          15
<NTsim_cycle>         105
<sim_IPC>      0.1429
@ 106
<NTsim_num_insn>          15
<NTsim_cycle>         106
<sim_IPC>      0.1415
@ 107
<NTsim_num_insn>          15
<NTsim_cycle>         107
<sim_IPC>      0.1402
@ 108
<NTsim_num_insn>          15
<NTsim_cycle>         108
<sim_IPC>      0.1389
@ 109
<NTsim_num_insn>          15
<NTsim_cycle>         109
<sim_IPC>      0.1376
@ 110
<NTsim_num_insn>          15
<NTsim_cycle>         110
<sim_IPC>      0.1364
@ 111
<NTsim_num_insn>          15
<NTsim_cycle>         111
<sim_IPC>      0.1351
@ 112
<NTsim_num_insn>          15
<NTsim_cycle>         112
<sim_IPC>      0.1339
@ 113
<NTsim_num_insn>          15
<NTsim_cycle>         113
<sim_IPC>      0.1327
@ 114
+ 49 0x0000a4c0 0x00000000 mov  r10,r3
* 49 IF 0x001 31 0x001
+ 50 0x0000a4c4 0x00000000 ldr  r11,[r13,#496]
* 50 IF 0x000 0 0x001
+ 51 0x0000a4c8 0x00000000 add  r0,r2,r1, lsl #2
* 51 IF 0x000 0 0x001
+ 52 0x0000a4cc 0x00000000 add  r0,r0,#4 (4 >>> 0)
* 52 IF 0x000 0 0x001
<NTsim_num_insn>          15
<NTsim_cycle>         114
<sim_IPC>      0.1316
@ 115
* 49 DA 0x000 0 0x000
* 50 DA 0x000 0 0x000
- 50
+ 53 0x0000a4c4 0x00000000 agen  tmp0,r13,496
* 53 DA 0x000 0 0x000
+ 54 0x0000a4c4 0x00000000 ldp  r11,[tmp0]
* 54 DA 0x000 0 0x000
* 51 DA 0x000 0 0x000
* 52 DA 0x000 0 0x000
+ 55 0x0000a4d0 0x00000000 mov  r2,#0 (0 >>> 0)
* 55 IF 0x000 0 0x001
+ 56 0x0000a4d4 0x00000000 ldr  r3,[r15,#508]
* 56 IF 0x000 0 0x001
+ 57 0x0000a4d8 0x00000000 cmp  r3,r2
* 57 IF 0x000 0 0x001
+ 58 0x0000a4dc 0x00000000 beq  0x10
* 58 IF 0x000 0 0x001
<NTsim_num_insn>          19
<NTsim_cycle>         115
<sim_IPC>      0.1652
@ 116
* 49 EX 0x000 0 0x001
* 53 EX 0x010 116 0x001
* 51 EX 0x000 0 0x001
* 55 DA 0x000 0 0x000
* 56 DA 0x000 0 0x000
- 56
+ 59 0x0000a4d4 0x00000000 agen  tmp0,r15,508
* 59 DA 0x000 0 0x000
+ 60 0x0000a4d4 0x00000000 ldp  r3,[tmp0]
* 60 DA 0x000 0 0x000
* 57 DA 0x000 0 0x000
* 58 DA 0x004 0 0x000
<NTsim_num_insn>          23
<NTsim_cycle>         116
<sim_IPC>      0.1983
@ 117
* 51 WB 0x000 0 0x000
* 53 WB 0x000 0 0x000
* 49 WB 0x000 0 0x000
* 54 EX 0x000 0 0x001
* 52 EX 0x000 0 0x001
* 55 EX 0x000 0 0x001
* 59 EX 0x010 1 0x001
<NTsim_num_insn>          23
<NTsim_cycle>         117
<sim_IPC>      0.1966
@ 118
* 49 CT 0x000 0 0x000
- 49
* 53 CT 0x000 0 0x000
- 53
* 59 WB 0x000 0 0x000
* 55 WB 0x000 0 0x000
* 52 WB 0x000 0 0x000
* 54 WB 0x000 0 0x000
* 60 EX 0x003 32 0x001
<NTsim_num_insn>          23
<NTsim_cycle>         118
<sim_IPC>      0.1949
@ 119
* 54 CT 0x000 0 0x000
- 54
* 51 CT 0x000 0 0x000
- 51
* 52 CT 0x000 0 0x000
- 52
* 55 CT 0x000 0 0x000
- 55
<NTsim_num_insn>          23
<NTsim_cycle>         119
<sim_IPC>      0.1933
@ 120
* 59 CT 0x000 0 0x000
- 59
<NTsim_num_insn>          23
<NTsim_cycle>         120
<sim_IPC>      0.1917
@ 121
<NTsim_num_insn>          23
<NTsim_cycle>         121
<sim_IPC>      0.1901
@ 122
<NTsim_num_insn>          23
<NTsim_cycle>         122
<sim_IPC>      0.1885
@ 123
<NTsim_num_insn>          23
<NTsim_cycle>         123
<sim_IPC>      0.1870
@ 124
<NTsim_num_insn>          23
<NTsim_cycle>         124
<sim_IPC>      0.1855
@ 125
+ 61 0x0000a4e0 0x00000000 ldr  r3,[r3,#0]
* 61 IF 0x001 5 0x001
+ 62 0x0000a4e4 0x00000000 cmp  r3,r2
* 62 IF 0x000 0 0x001
+ 63 0x0000a4e8 0x00000000 moveq  r2,#1 (1 >>> 0)
* 63 IF 0x000 0 0x001
+ 64 0x0000a4ec 0x00000000 ldr  r3,[r15,#488]
* 64 IF 0x000 0 0x001
<NTsim_num_insn>          23
<NTsim_cycle>         125
<sim_IPC>      0.1840
@ 126
* 61 DA 0x000 0 0x000
- 61
+ 65 0x0000a4e0 0x00000000 agen  tmp0,r3,0
* 65 DA 0x000 0 0x000
+ 66 0x0000a4e0 0x00000000 ldp  r3,[tmp0]
* 66 DA 0x000 0 0x000
* 62 DA 0x000 0 0x000
* 63 DA 0x000 0 0x000
* 64 DA 0x000 0 0x000
- 64
+ 67 0x0000a4ec 0x00000000 agen  tmp0,r15,488
* 67 DA 0x000 0 0x000
+ 68 0x0000a4f0 0x00000000 str  r2,[r3,#0]
* 68 IF 0x000 0 0x001
+ 69 0x0000a4f4 0x00000000 ldr  r3,[r15,#484]
* 69 IF 0x000 0 0x001
+ 70 0x0000a4f8 0x00000000 str  r0,[r3,#0]
* 70 IF 0x000 0 0x001
<NTsim_num_insn>          27
<NTsim_cycle>         126
<sim_IPC>      0.2143
@ 127
* 63 EX 0x000 0 0x001
* 67 EX 0x010 127 0x001
+ 71 0x0000a4ec 0x00000000 ldp  r3,[tmp0]
* 71 DA 0x000 0 0x000
* 68 DA 0x000 0 0x000
- 68
+ 72 0x0000a4f0 0x00000000 agen  tmp0,r3,0
* 72 DA 0x000 0 0x000
+ 73 0x0000a4f0 0x00000000 stp  r2,[tmp0]
* 73 DA 0x000 0 0x000
* 69 DA 0x000 0 0x000
- 69
+ 74 0x0000a4f4 0x00000000 agen  tmp0,r15,484
* 74 DA 0x000 0 0x000
+ 75 0x0000a4f4 0x00000000 ldp  r3,[tmp0]
* 75 DA 0x000 0 0x000
* 70 DA 0x000 0 0x000
- 70
+ 76 0x0000a4f8 0x00000000 agen  tmp0,r3,0
* 76 DA 0x000 0 0x000
+ 77 0x0000a4f8 0x00000000 stp  r0,[tmp0]
* 77 DA 0x000 0 0x000
+ 78 0x0000a4fc 0x00000000 ldr  r2,[r13,#500]
* 78 IF 0x000 0 0x001
<NTsim_num_insn>          30
<NTsim_cycle>         127
<sim_IPC>      0.2362
@ 128
* 67 WB 0x000 0 0x000
* 63 WB 0x000 0 0x000
* 71 EX 0x003 22 0x001
* 74 EX 0x010 22 0x001
* 78 DA 0x000 0 0x000
- 78
+ 79 0x0000a4fc 0x00000000 agen  tmp0,r13,500
* 79 DA 0x000 0 0x000
+ 80 0x0000a4fc 0x00000000 ldp  r2,[tmp0]
* 80 DA 0x000 0 0x000
<NTsim_num_insn>          31
<NTsim_cycle>         128
<sim_IPC>      0.2422
@ 129
* 74 WB 0x000 0 0x000
* 79 EX 0x010 129 0x001
<NTsim_num_insn>          31
<NTsim_cycle>         129
<sim_IPC>      0.2403
@ 130
* 79 WB 0x000 0 0x000
<NTsim_num_insn>          31
<NTsim_cycle>         130
<sim_IPC>      0.2385
@ 131
<NTsim_num_insn>          31
<NTsim_cycle>         131
<sim_IPC>      0.2366
@ 132
<NTsim_num_insn>          31
<NTsim_cycle>         132
<sim_IPC>      0.2348
@ 133
<NTsim_num_insn>          31
<NTsim_cycle>         133
<sim_IPC>      0.2331
@ 134
<NTsim_num_insn>          31
<NTsim_cycle>         134
<sim_IPC>      0.2313
@ 135
<NTsim_num_insn>          31
<NTsim_cycle>         135
<sim_IPC>      0.2296
@ 136
<NTsim_num_insn>          31
<NTsim_cycle>         136
<sim_IPC>      0.2279
@ 137
<NTsim_num_insn>          31
<NTsim_cycle>         137
<sim_IPC>      0.2263
@ 138
<NTsim_num_insn>          31
<NTsim_cycle>         138
<sim_IPC>      0.2246
@ 139
<NTsim_num_insn>          31
<NTsim_cycle>         139
<sim_IPC>      0.2230
@ 140
<NTsim_num_insn>          31
<NTsim_cycle>         140
<sim_IPC>      0.2214
@ 141
<NTsim_num_insn>          31
<NTsim_cycle>         141
<sim_IPC>      0.2199
@ 142
<NTsim_num_insn>          31
<NTsim_cycle>         142
<sim_IPC>      0.2183
@ 143
<NTsim_num_insn>          31
<NTsim_cycle>         143
<sim_IPC>      0.2168
@ 144
<NTsim_num_insn>          31
<NTsim_cycle>         144
<sim_IPC>      0.2153
@ 145
<NTsim_num_insn>          31
<NTsim_cycle>         145
<sim_IPC>      0.2138
@ 146
<NTsim_num_insn>          31
<NTsim_cycle>         146
<sim_IPC>      0.2123
@ 147
<NTsim_num_insn>          31
<NTsim_cycle>         147
<sim_IPC>      0.2109
@ 148
<NTsim_num_insn>          31
<NTsim_cycle>         148
<sim_IPC>      0.2095
@ 149
<NTsim_num_insn>          31
<NTsim_cycle>         149
<sim_IPC>      0.2081
@ 150
* 71 WB 0x000 0 0x000
* 60 WB 0x000 0 0x000
* 57 EX 0x000 0 0x001
* 65 EX 0x010 150 0x001
* 72 EX 0x010 150 0x001
<NTsim_num_insn>          31
<NTsim_cycle>         150
<sim_IPC>      0.2067
@ 151
* 60 CT 0x000 0 0x000
- 60
* 72 WB 0x000 0 0x000
* 65 WB 0x000 0 0x000
* 57 WB 0x000 0 0x000
* 75 EX 0x001 6 0x001
* 66 EX 0x003 32 0x001
* 58 EX 0x000 0 0x001
* 73 WB 0x000 0 0x000
<NTsim_num_insn>          31
<NTsim_cycle>         151
<sim_IPC>      0.2053
@ 152
* 57 CT 0x000 0 0x000
- 57
* 58 WB 0x000 0 0x000
<NTsim_num_insn>          31
<NTsim_cycle>         152
<sim_IPC>      0.2039
@ 153
* 58 CT 0x000 0 0x000
- 58
* 65 CT 0x000 0 0x000
- 65
<NTsim_num_insn>          31
<NTsim_cycle>         153
<sim_IPC>      0.2026
@ 154
<NTsim_num_insn>          31
<NTsim_cycle>         154
<sim_IPC>      0.2013
@ 155
<NTsim_num_insn>          31
<NTsim_cycle>         155
<sim_IPC>      0.2000
@ 156
<NTsim_num_insn>          31
<NTsim_cycle>         156
<sim_IPC>      0.1987
@ 157
* 75 WB 0x000 0 0x000
* 76 EX 0x010 0 0x001
<NTsim_num_insn>          31
<NTsim_cycle>         157
<sim_IPC>      0.1975
@ 158
* 76 WB 0x000 0 0x000
* 80 EX 0x000 0 0x001
* 77 WB 0x000 0 0x000
<NTsim_num_insn>          31
<NTsim_cycle>         158
<sim_IPC>      0.1962
@ 159
* 80 WB 0x000 0 0x000
+ 81 0x0000a500 0x00000000 ldr  r3,[r15,#476]
* 81 IF 0x001 31 0x001
+ 82 0x0000a504 0x00000000 str  r2,[r3,#0]
* 82 IF 0x000 0 0x001
+ 83 0x0000a508 0x00000000 ldr  r3,[r0,#0]
* 83 IF 0x000 0 0x001
+ 84 0x0000a50c 0x00000000 cmp  r3,#0 (0 >>> 0)
* 84 IF 0x000 0 0x001
<NTsim_num_insn>          31
<NTsim_cycle>         159
<sim_IPC>      0.1950
@ 160
* 81 DA 0x000 0 0x000
- 81
+ 85 0x0000a500 0x00000000 agen  tmp0,r15,476
* 85 DA 0x000 0 0x000
+ 86 0x0000a500 0x00000000 ldp  r3,[tmp0]
* 86 DA 0x000 0 0x000
* 82 DA 0x000 0 0x000
- 82
+ 87 0x0000a504 0x00000000 agen  tmp0,r3,0
* 87 DA 0x000 0 0x000
+ 88 0x0000a504 0x00000000 stp  r2,[tmp0]
* 88 DA 0x000 0 0x000
+ 89 0x0000a510 0x00000000 beq  0x10
* 89 IF 0x000 0 0x001
+ 90 0x0000a514 0x00000000 ldr  r3,[r0,#4]!
* 90 IF 0x000 0 0x001
<NTsim_num_insn>          33
<NTsim_cycle>         160
<sim_IPC>      0.2062
@ 161
* 85 EX 0x010 0 0x001
<NTsim_num_insn>          33
<NTsim_cycle>         161
<sim_IPC>      0.2050
@ 162
* 85 WB 0x000 0 0x000
* 86 EX 0x000 0 0x001
<NTsim_num_insn>          33
<NTsim_cycle>         162
<sim_IPC>      0.2037
@ 163
* 86 WB 0x000 0 0x000
* 87 EX 0x010 0 0x001
<NTsim_num_insn>          33
<NTsim_cycle>         163
<sim_IPC>      0.2025
@ 164
* 87 WB 0x000 0 0x000
* 88 WB 0x000 0 0x000
<NTsim_num_insn>          33
<NTsim_cycle>         164
<sim_IPC>      0.2012
@ 165
<NTsim_num_insn>          33
<NTsim_cycle>         165
<sim_IPC>      0.2000
@ 166
<NTsim_num_insn>          33
<NTsim_cycle>         166
<sim_IPC>      0.1988
@ 167
<NTsim_num_insn>          33
<NTsim_cycle>         167
<sim_IPC>      0.1976
@ 168
<NTsim_num_insn>          33
<NTsim_cycle>         168
<sim_IPC>      0.1964
@ 169
<NTsim_num_insn>          33
<NTsim_cycle>         169
<sim_IPC>      0.1953
@ 170
<NTsim_num_insn>          33
<NTsim_cycle>         170
<sim_IPC>      0.1941
@ 171
<NTsim_num_insn>          33
<NTsim_cycle>         171
<sim_IPC>      0.1930
@ 172
<NTsim_num_insn>          33
<NTsim_cycle>         172
<sim_IPC>      0.1919
@ 173
<NTsim_num_insn>          33
<NTsim_cycle>         173
<sim_IPC>      0.1908
@ 174
<NTsim_num_insn>          33
<NTsim_cycle>         174
<sim_IPC>      0.1897
@ 175
<NTsim_num_insn>          33
<NTsim_cycle>         175
<sim_IPC>      0.1886
@ 176
<NTsim_num_insn>          33
<NTsim_cycle>         176
<sim_IPC>      0.1875
@ 177
<NTsim_num_insn>          33
<NTsim_cycle>         177
<sim_IPC>      0.1864
@ 178
<NTsim_num_insn>          33
<NTsim_cycle>         178
<sim_IPC>      0.1854
@ 179
<NTsim_num_insn>          33
<NTsim_cycle>         179
<sim_IPC>      0.1844
@ 180
<NTsim_num_insn>          33
<NTsim_cycle>         180
<sim_IPC>      0.1833
@ 181
<NTsim_num_insn>          33
<NTsim_cycle>         181
<sim_IPC>      0.1823
@ 182
<NTsim_num_insn>          33
<NTsim_cycle>         182
<sim_IPC>      0.1813
@ 183
* 66 WB 0x000 0 0x000
* 62 EX 0x000 0 0x001
<NTsim_num_insn>          33
<NTsim_cycle>         183
<sim_IPC>      0.1803
@ 184
* 66 CT 0x000 0 0x000
- 66
* 62 WB 0x000 0 0x000
* 83 DA 0x000 0 0x000
- 83
+ 91 0x0000a508 0x00000000 agen  tmp0,r0,0
* 91 DA 0x000 0 0x000
+ 92 0x0000a508 0x00000000 ldp  r3,[tmp0]
* 92 DA 0x000 0 0x000
+ 93 0x0000a518 0x00000000 cmp  r3,#0 (0 >>> 0)
* 93 IF 0x000 0 0x001
<NTsim_num_insn>          34
<NTsim_cycle>         184
<sim_IPC>      0.1848
@ 185
* 62 CT 0x000 0 0x000
- 62
* 63 CT 0x000 0 0x000
- 63
* 67 CT 0x000 0 0x000
- 67
* 71 CT 0x000 0 0x000
- 71
* 72 CT 0x000 0 0x000
- 72
* 91 EX 0x010 0 0x001
* 84 DA 0x000 0 0x000
* 89 DA 0x000 0 0x000
* 90 DA 0x000 0 0x000
- 90
+ 94 0x0000a514 0x00000000 agen  r0,r0,4
* 94 DA 0x000 0 0x000
+ 95 0x0000a514 0x00000000 ldp  r3,[r0]
* 95 DA 0x000 0 0x000
+ 96 0x0000a51c 0x00000000 bne  0xfffffff8
* 96 IF 0x000 0 0x001
<NTsim_num_insn>          37
<NTsim_cycle>         185
<sim_IPC>      0.2000
@ 186
* 73 CT 0x001 0 0x000
- 73
* 74 CT 0x001 0 0x000
- 74
* 75 CT 0x000 0 0x000
- 75
* 76 CT 0x000 0 0x000
- 76
* 91 WB 0x000 0 0x000
* 92 EX 0x000 0 0x001
* 94 EX 0x010 1 0x001
* 93 DA 0x000 0 0x000
* 96 DA 0x004 0 0x000
<NTsim_num_insn>          39
<NTsim_cycle>         186
<sim_IPC>      0.2097
@ 187
* 77 CT 0x003 0 0x000
- 77
* 79 CT 0x003 0 0x000
- 79
* 80 CT 0x000 0 0x000
- 80
* 85 CT 0x000 0 0x000
- 85
* 94 WB 0x000 0 0x000
* 92 WB 0x000 0 0x000
* 95 EX 0x000 0 0x001
* 84 EX 0x000 0 0x001
<NTsim_num_insn>          39
<NTsim_cycle>         187
<sim_IPC>      0.2086
@ 188
* 86 CT 0x000 0 0x000
- 86
* 87 CT 0x000 0 0x000
- 87
* 88 CT 0x003 0 0x000
- 88
* 91 CT 0x003 0 0x000
- 91
* 84 WB 0x000 0 0x000
* 95 WB 0x000 0 0x000
* 89 EX 0x000 0 0x001
* 93 EX 0x000 0 0x001
<NTsim_num_insn>          39
<NTsim_cycle>         188
<sim_IPC>      0.2074
@ 189
* 92 CT 0x000 0 0x000
- 92
* 84 CT 0x000 0 0x000
- 84
* 93 WB 0x000 0 0x000
* 89 WB 0x000 0 0x000
* 96 EX 0x000 0 0x001
+ 97 0x0000a514 0x00000000 ldr  r3,[r0,#4]!
* 97 IF 0x000 0 0x001
+ 98 0x0000a518 0x00000000 cmp  r3,#0 (0 >>> 0)
* 98 IF 0x000 0 0x001
+ 99 0x0000a51c 0x00000000 bne  0xfffffff8
* 99 IF 0x000 0 0x001
<NTsim_num_insn>          39
<NTsim_cycle>         189
<sim_IPC>      0.2063
@ 190
* 89 CT 0x000 0 0x000
- 89
* 94 CT 0x000 0 0x000
- 94
* 95 CT 0x000 0 0x000
- 95
* 93 CT 0x000 0 0x000
- 93
* 96 WB 0x000 0 0x000
* 97 DA 0x000 0 0x000
- 97
+ 100 0x0000a514 0x00000000 agen  r0,r0,4
* 100 DA 0x000 0 0x000
+ 101 0x0000a514 0x00000000 ldp  r3,[r0]
* 101 DA 0x000 0 0x000
* 98 DA 0x000 0 0x000
* 99 DA 0x004 0 0x000
<NTsim_num_insn>          42
<NTsim_cycle>         190
<sim_IPC>      0.2211
@ 191
* 96 CT 0x000 0 0x000
- 96
* 100 EX 0x010 191 0x001
<NTsim_num_insn>          42
<NTsim_cycle>         191
<sim_IPC>      0.2199
@ 192
* 100 WB 0x000 0 0x000
* 101 EX 0x000 0 0x001
<NTsim_num_insn>          42
<NTsim_cycle>         192
<sim_IPC>      0.2188
@ 193
* 100 CT 0x000 0 0x000
- 100
* 101 WB 0x000 0 0x000
* 98 EX 0x000 0 0x001
+ 102 0x0000a514 0x00000000 ldr  r3,[r0,#4]!
* 102 IF 0x000 0 0x001
+ 103 0x0000a518 0x00000000 cmp  r3,#0 (0 >>> 0)
* 103 IF 0x000 0 0x001
+ 104 0x0000a51c 0x00000000 bne  0xfffffff8
* 104 IF 0x000 0 0x001
<NTsim_num_insn>          42
<NTsim_cycle>         193
<sim_IPC>      0.2176
@ 194
* 101 CT 0x000 0 0x000
- 101
* 98 WB 0x000 0 0x000
* 99 EX 0x000 0 0x001
* 102 DA 0x000 0 0x000
- 102
+ 105 0x0000a514 0x00000000 agen  r0,r0,4
* 105 DA 0x000 0 0x000
+ 106 0x0000a514 0x00000000 ldp  r3,[r0]
* 106 DA 0x000 0 0x000
* 103 DA 0x000 0 0x000
* 104 DA 0x000 0 0x000
+ 107 0x0000a514 0x00000000 ldr  r3,[r0,#4]!
* 107 IF 0x000 0 0x001
+ 108 0x0000a518 0x00000000 cmp  r3,#0 (0 >>> 0)
* 108 IF 0x000 0 0x001
+ 109 0x0000a51c 0x00000000 bne  0xfffffff8
* 109 IF 0x000 0 0x001
<NTsim_num_insn>          45
<NTsim_cycle>         194
<sim_IPC>      0.2320
@ 195
* 98 CT 0x000 0 0x000
- 98
* 99 WB 0x000 0 0x000
* 105 EX 0x010 195 0x001
* 107 DA 0x000 0 0x000
- 107
+ 110 0x0000a514 0x00000000 agen  r0,r0,4
* 110 DA 0x000 0 0x000
+ 111 0x0000a514 0x00000000 ldp  r3,[r0]
* 111 DA 0x000 0 0x000
* 108 DA 0x000 0 0x000
* 109 DA 0x000 0 0x000
+ 112 0x0000a514 0x00000000 ldr  r3,[r0,#4]!
* 112 IF 0x000 0 0x001
+ 113 0x0000a518 0x00000000 cmp  r3,#0 (0 >>> 0)
* 113 IF 0x000 0 0x001
+ 114 0x0000a51c 0x00000000 bne  0xfffffff8
* 114 IF 0x000 0 0x001
<NTsim_num_insn>          48
<NTsim_cycle>         195
<sim_IPC>      0.2462
@ 196
* 99 CT 0x000 0 0x000
- 99
* 105 WB 0x000 0 0x000
* 106 EX 0x000 0 0x001
* 110 EX 0x010 1 0x001
* 112 DA 0x000 0 0x000
- 112
+ 115 0x0000a514 0x00000000 agen  r0,r0,4
* 115 DA 0x000 0 0x000
+ 116 0x0000a514 0x00000000 ldp  r3,[r0]
* 116 DA 0x000 0 0x000
* 113 DA 0x000 0 0x000
* 114 DA 0x000 0 0x000
+ 117 0x0000a514 0x00000000 ldr  r3,[r0,#4]!
* 117 IF 0x000 0 0x001
+ 118 0x0000a518 0x00000000 cmp  r3,#0 (0 >>> 0)
* 118 IF 0x000 0 0x001
+ 119 0x0000a51c 0x00000000 bne  0xfffffff8
* 119 IF 0x000 0 0x001
<NTsim_num_insn>          51
<NTsim_cycle>         196
<sim_IPC>      0.2602
@ 197
* 105 CT 0x000 0 0x000
- 105
* 110 WB 0x000 0 0x000
* 106 WB 0x000 0 0x000
* 111 EX 0x000 0 0x001
* 103 EX 0x000 0 0x001
* 115 EX 0x010 1 0x001
* 117 DA 0x000 0 0x000
- 117
+ 120 0x0000a514 0x00000000 agen  r0,r0,4
* 120 DA 0x000 0 0x000
+ 121 0x0000a514 0x00000000 ldp  r3,[r0]
* 121 DA 0x000 0 0x000
* 118 DA 0x000 0 0x000
* 119 DA 0x000 0 0x000
+ 122 0x0000a514 0x00000000 ldr  r3,[r0,#4]!
* 122 IF 0x000 0 0x001
+ 123 0x0000a518 0x00000000 cmp  r3,#0 (0 >>> 0)
* 123 IF 0x000 0 0x001
+ 124 0x0000a51c 0x00000000 bne  0xfffffff8
* 124 IF 0x000 0 0x001
<NTsim_num_insn>          54
<NTsim_cycle>         197
<sim_IPC>      0.2741
@ 198
* 106 CT 0x000 0 0x000
- 106
* 115 WB 0x000 0 0x000
* 103 WB 0x000 0 0x000
* 111 WB 0x000 0 0x000
* 116 EX 0x001 6 0x001
* 104 EX 0x000 0 0x001
* 108 EX 0x000 0 0x001
* 120 EX 0x010 6 0x001
* 122 DA 0x000 0 0x000
- 122
+ 125 0x0000a514 0x00000000 agen  r0,r0,4
* 125 DA 0x000 0 0x000
+ 126 0x0000a514 0x00000000 ldp  r3,[r0]
* 126 DA 0x000 0 0x000
* 123 DA 0x000 0 0x000
* 124 DA 0x000 0 0x000
+ 127 0x0000a514 0x00000000 ldr  r3,[r0,#4]!
* 127 IF 0x000 0 0x001
+ 128 0x0000a518 0x00000000 cmp  r3,#0 (0 >>> 0)
* 128 IF 0x000 0 0x001
+ 129 0x0000a51c 0x00000000 bne  0xfffffff8
* 129 IF 0x000 0 0x001
<NTsim_num_insn>          57
<NTsim_cycle>         198
<sim_IPC>      0.2879
@ 199
* 103 CT 0x000 0 0x000
- 103
* 120 WB 0x000 0 0x000
* 108 WB 0x000 0 0x000
* 104 WB 0x000 0 0x000
* 121 EX 0x001 5 0x001
* 109 EX 0x000 0 0x001
* 125 EX 0x010 5 0x001
* 127 DA 0x000 0 0x000
- 127
+ 130 0x0000a514 0x00000000 agen  r0,r0,4
* 130 DA 0x000 0 0x000
+ 131 0x0000a514 0x00000000 ldp  r3,[r0]
* 131 DA 0x000 0 0x000
* 128 DA 0x000 0 0x000
* 129 DA 0x000 0 0x000
+ 132 0x0000a514 0x00000000 ldr  r3,[r0,#4]!
* 132 IF 0x000 0 0x001
+ 133 0x0000a518 0x00000000 cmp  r3,#0 (0 >>> 0)
* 133 IF 0x000 0 0x001
+ 134 0x0000a51c 0x00000000 bne  0xfffffff8
* 134 IF 0x000 0 0x001
<NTsim_num_insn>          60
<NTsim_cycle>         199
<sim_IPC>      0.3015
@ 200
* 104 CT 0x000 0 0x000
- 104
* 110 CT 0x000 0 0x000
- 110
* 111 CT 0x000 0 0x000
- 111
* 108 CT 0x000 0 0x000
- 108
* 125 WB 0x000 0 0x000
* 109 WB 0x000 0 0x000
* 126 EX 0x001 4 0x001
* 130 EX 0x010 4 0x001
* 132 DA 0x000 0 0x000
- 132
+ 135 0x0000a514 0x00000000 agen  r0,r0,4
* 135 DA 0x000 0 0x000
+ 136 0x0000a514 0x00000000 ldp  r3,[r0]
* 136 DA 0x000 0 0x000
* 133 DA 0x000 0 0x000
* 134 DA 0x000 0 0x000
+ 137 0x0000a514 0x00000000 ldr  r3,[r0,#4]!
* 137 IF 0x000 0 0x001
+ 138 0x0000a518 0x00000000 cmp  r3,#0 (0 >>> 0)
* 138 IF 0x000 0 0x001
+ 139 0x0000a51c 0x00000000 bne  0xfffffff8
* 139 IF 0x000 0 0x001
<NTsim_num_insn>          63
<NTsim_cycle>         200
<sim_IPC>      0.3150
@ 201
* 109 CT 0x000 0 0x000
- 109
* 115 CT 0x000 0 0x000
- 115
* 130 WB 0x000 0 0x000
* 131 EX 0x001 3 0x001
* 135 EX 0x010 3 0x001
* 137 DA 0x000 0 0x000
- 137
+ 140 0x0000a514 0x00000000 agen  r0,r0,4
* 140 DA 0x000 0 0x000
+ 141 0x0000a514 0x00000000 ldp  r3,[r0]
* 141 DA 0x000 0 0x000
* 138 DA 0x000 0 0x000
+ 142 0x0000a514 0x00000000 ldr  r3,[r0,#4]!
* 142 IF 0x000 0 0x001
+ 143 0x0000a518 0x00000000 cmp  r3,#0 (0 >>> 0)
* 143 IF 0x000 0 0x001
+ 144 0x0000a51c 0x00000000 bne  0xfffffff8
* 144 IF 0x000 0 0x001
<NTsim_num_insn>          65
<NTsim_cycle>         201
<sim_IPC>      0.3234
@ 202
* 135 WB 0x000 0 0x000
* 136 EX 0x001 2 0x001
* 140 EX 0x010 2 0x001
<NTsim_num_insn>          65
<NTsim_cycle>         202
<sim_IPC>      0.3218
@ 203
* 140 WB 0x000 0 0x000
* 141 EX 0x000 0 0x001
<NTsim_num_insn>          65
<NTsim_cycle>         203
<sim_IPC>      0.3202
@ 204
* 141 WB 0x000 0 0x000
* 136 WB 0x000 0 0x000
* 131 WB 0x000 0 0x000
* 126 WB 0x000 0 0x000
* 121 WB 0x000 0 0x000
* 116 WB 0x000 0 0x000
* 113 EX 0x000 0 0x001
* 118 EX 0x000 0 0x001
* 123 EX 0x000 0 0x001
* 128 EX 0x000 0 0x001
<NTsim_num_insn>          65
<NTsim_cycle>         204
<sim_IPC>      0.3186
@ 205
* 116 CT 0x000 0 0x000
- 116
* 128 WB 0x000 0 0x000
* 123 WB 0x000 0 0x000
* 118 WB 0x000 0 0x000
* 113 WB 0x000 0 0x000
* 114 EX 0x000 0 0x001
* 119 EX 0x000 0 0x001
* 124 EX 0x000 0 0x001
* 129 EX 0x000 0 0x001
<NTsim_num_insn>          65
<NTsim_cycle>         205
<sim_IPC>      0.3171
@ 206
* 113 CT 0x000 0 0x000
- 113
* 129 WB 0x000 0 0x000
* 124 WB 0x000 0 0x000
* 119 WB 0x000 0 0x000
* 114 WB 0x000 0 0x000
* 133 EX 0x000 0 0x001
* 138 EX 0x000 0 0x001
* 139 DA 0x000 0 0x000
+ 145 0x0000a514 0x00000000 ldr  r3,[r0,#4]!
* 145 IF 0x000 0 0x001
<NTsim_num_insn>          66
<NTsim_cycle>         206
<sim_IPC>      0.3204
@ 207
* 114 CT 0x000 0 0x000
- 114
* 120 CT 0x000 0 0x000
- 120
* 121 CT 0x000 0 0x000
- 121
* 118 CT 0x000 0 0x000
- 118
* 138 WB 0x000 0 0x000
* 133 WB 0x000 0 0x000
* 134 EX 0x000 0 0x001
* 139 EX 0x000 0 0x001
* 142 DA 0x000 0 0x000
- 142
+ 146 0x0000a514 0x00000000 agen  r0,r0,4
* 146 DA 0x000 0 0x000
+ 147 0x0000a514 0x00000000 ldp  r3,[r0]
* 147 DA 0x000 0 0x000
* 143 DA 0x000 0 0x000
* 144 DA 0x000 0 0x000
+ 148 0x0000a518 0x00000000 cmp  r3,#0 (0 >>> 0)
* 148 IF 0x000 0 0x001
+ 149 0x0000a51c 0x00000000 bne  0xfffffff8
* 149 IF 0x000 0 0x001
<NTsim_num_insn>          69
<NTsim_cycle>         207
<sim_IPC>      0.3333
@ 208
* 119 CT 0x000 0 0x000
- 119
* 125 CT 0x000 0 0x000
- 125
* 126 CT 0x000 0 0x000
- 126
* 123 CT 0x000 0 0x000
- 123
* 139 WB 0x000 0 0x000
* 134 WB 0x000 0 0x000
* 146 EX 0x010 208 0x001
* 145 DA 0x000 0 0x000
- 145
+ 150 0x0000a514 0x00000000 agen  r0,r0,4
* 150 DA 0x000 0 0x000
+ 151 0x0000a514 0x00000000 ldp  r3,[r0]
* 151 DA 0x000 0 0x000
* 148 DA 0x000 0 0x000
* 149 DA 0x000 0 0x000
+ 152 0x0000a514 0x00000000 ldr  r3,[r0,#4]!
* 152 IF 0x000 0 0x001
+ 153 0x0000a518 0x00000000 cmp  r3,#0 (0 >>> 0)
* 153 IF 0x000 0 0x001
+ 154 0x0000a51c 0x00000000 bne  0xfffffff8
* 154 IF 0x000 0 0x001
<NTsim_num_insn>          72
<NTsim_cycle>         208
<sim_IPC>      0.3462
@ 209
* 124 CT 0x000 0 0x000
- 124
* 130 CT 0x000 0 0x000
- 130
* 131 CT 0x000 0 0x000
- 131
* 128 CT 0x000 0 0x000
- 128
* 146 WB 0x000 0 0x000
* 147 EX 0x000 0 0x001
* 150 EX 0x010 1 0x001
* 152 DA 0x000 0 0x000
- 152
+ 155 0x0000a514 0x00000000 agen  r0,r0,4
* 155 DA 0x000 0 0x000
+ 156 0x0000a514 0x00000000 ldp  r3,[r0]
* 156 DA 0x000 0 0x000
* 153 DA 0x000 0 0x000
* 154 DA 0x000 0 0x000
+ 157 0x0000a514 0x00000000 ldr  r3,[r0,#4]!
* 157 IF 0x000 0 0x001
+ 158 0x0000a518 0x00000000 cmp  r3,#0 (0 >>> 0)
* 158 IF 0x000 0 0x001
+ 159 0x0000a51c 0x00000000 bne  0xfffffff8
* 159 IF 0x000 0 0x001
<NTsim_num_insn>          75
<NTsim_cycle>         209
<sim_IPC>      0.3589
@ 210
* 129 CT 0x000 0 0x000
- 129
* 135 CT 0x000 0 0x000
- 135
* 136 CT 0x000 0 0x000
- 136
* 133 CT 0x000 0 0x000
- 133
* 150 WB 0x000 0 0x000
* 147 WB 0x000 0 0x000
* 151 EX 0x000 0 0x001
* 143 EX 0x000 0 0x001
* 155 EX 0x010 1 0x001
* 157 DA 0x000 0 0x000
- 157
+ 160 0x0000a514 0x00000000 agen  r0,r0,4
* 160 DA 0x000 0 0x000
+ 161 0x0000a514 0x00000000 ldp  r3,[r0]
* 161 DA 0x000 0 0x000
* 158 DA 0x000 0 0x000
* 159 DA 0x000 0 0x000
+ 162 0x0000a514 0x00000000 ldr  r3,[r0,#4]!
* 162 IF 0x000 0 0x001
+ 163 0x0000a518 0x00000000 cmp  r3,#0 (0 >>> 0)
* 163 IF 0x000 0 0x001
+ 164 0x0000a51c 0x00000000 bne  0xfffffff8
* 164 IF 0x000 0 0x001
<NTsim_num_insn>          78
<NTsim_cycle>         210
<sim_IPC>      0.3714
@ 211
* 134 CT 0x000 0 0x000
- 134
* 140 CT 0x000 0 0x000
- 140
* 141 CT 0x000 0 0x000
- 141
* 138 CT 0x000 0 0x000
- 138
* 155 WB 0x000 0 0x000
* 143 WB 0x000 0 0x000
* 151 WB 0x000 0 0x000
* 156 EX 0x001 32 0x001
* 144 EX 0x000 0 0x001
* 148 EX 0x000 0 0x001
* 160 EX 0x010 32 0x001
* 162 DA 0x000 0 0x000
- 162
+ 165 0x0000a514 0x00000000 agen  r0,r0,4
* 165 DA 0x000 0 0x000
+ 166 0x0000a514 0x00000000 ldp  r3,[r0]
* 166 DA 0x000 0 0x000
* 163 DA 0x000 0 0x000
* 164 DA 0x000 0 0x000
+ 167 0x0000a514 0x00000000 ldr  r3,[r0,#4]!
* 167 IF 0x000 0 0x001
+ 168 0x0000a518 0x00000000 cmp  r3,#0 (0 >>> 0)
* 168 IF 0x000 0 0x001
+ 169 0x0000a51c 0x00000000 bne  0xfffffff8
* 169 IF 0x000 0 0x001
<NTsim_num_insn>          81
<NTsim_cycle>         211
<sim_IPC>      0.3839
@ 212
* 139 CT 0x000 0 0x000
- 139
* 146 CT 0x000 0 0x000
- 146
* 147 CT 0x000 0 0x000
- 147
* 143 CT 0x000 0 0x000
- 143
* 160 WB 0x000 0 0x000
* 148 WB 0x000 0 0x000
* 144 WB 0x000 0 0x000
* 161 EX 0x001 31 0x001
* 149 EX 0x000 0 0x001
* 165 EX 0x010 31 0x001
* 167 DA 0x000 0 0x000
- 167
+ 170 0x0000a514 0x00000000 agen  r0,r0,4
* 170 DA 0x000 0 0x000
+ 171 0x0000a514 0x00000000 ldp  r3,[r0]
* 171 DA 0x000 0 0x000
* 168 DA 0x000 0 0x000
* 169 DA 0x000 0 0x000
+ 172 0x0000a514 0x00000000 ldr  r3,[r0,#4]!
* 172 IF 0x000 0 0x001
+ 173 0x0000a518 0x00000000 cmp  r3,#0 (0 >>> 0)
* 173 IF 0x000 0 0x001
+ 174 0x0000a51c 0x00000000 bne  0xfffffff8
* 174 IF 0x000 0 0x001
<NTsim_num_insn>          84
<NTsim_cycle>         212
<sim_IPC>      0.3962
@ 213
* 144 CT 0x000 0 0x000
- 144
* 150 CT 0x000 0 0x000
- 150
* 151 CT 0x000 0 0x000
- 151
* 148 CT 0x000 0 0x000
- 148
* 165 WB 0x000 0 0x000
* 149 WB 0x000 0 0x000
* 166 EX 0x001 30 0x001
* 170 EX 0x010 30 0x001
* 172 DA 0x000 0 0x000
- 172
+ 175 0x0000a514 0x00000000 agen  r0,r0,4
* 175 DA 0x000 0 0x000
+ 176 0x0000a514 0x00000000 ldp  r3,[r0]
* 176 DA 0x000 0 0x000
* 173 DA 0x000 0 0x000
* 174 DA 0x000 0 0x000
+ 177 0x0000a514 0x00000000 ldr  r3,[r0,#4]!
* 177 IF 0x000 0 0x001
+ 178 0x0000a518 0x00000000 cmp  r3,#0 (0 >>> 0)
* 178 IF 0x000 0 0x001
+ 179 0x0000a51c 0x00000000 bne  0xfffffff8
* 179 IF 0x000 0 0x001
<NTsim_num_insn>          87
<NTsim_cycle>         213
<sim_IPC>      0.4085
@ 214
* 149 CT 0x000 0 0x000
- 149
* 155 CT 0x000 0 0x000
- 155
* 170 WB 0x000 0 0x000
* 171 EX 0x001 29 0x001
* 175 EX 0x010 29 0x001
* 177 DA 0x000 0 0x000
- 177
+ 180 0x0000a514 0x00000000 agen  r0,r0,4
* 180 DA 0x000 0 0x000
+ 181 0x0000a514 0x00000000 ldp  r3,[r0]
* 181 DA 0x000 0 0x000
* 178 DA 0x000 0 0x000
+ 182 0x0000a514 0x00000000 ldr  r3,[r0,#4]!
* 182 IF 0x000 0 0x001
+ 183 0x0000a518 0x00000000 cmp  r3,#0 (0 >>> 0)
* 183 IF 0x000 0 0x001
+ 184 0x0000a51c 0x00000000 bne  0xfffffff8
* 184 IF 0x000 0 0x001
<NTsim_num_insn>          89
<NTsim_cycle>         214
<sim_IPC>      0.4159
@ 215
* 175 WB 0x000 0 0x000
* 176 EX 0x001 28 0x001
* 180 EX 0x010 28 0x001
<NTsim_num_insn>          89
<NTsim_cycle>         215
<sim_IPC>      0.4140
@ 216
* 180 WB 0x000 0 0x000
* 181 EX 0x001 27 0x001
<NTsim_num_insn>          89
<NTsim_cycle>         216
<sim_IPC>      0.4120
@ 217
<NTsim_num_insn>          89
<NTsim_cycle>         217
<sim_IPC>      0.4101
@ 218
<NTsim_num_insn>          89
<NTsim_cycle>         218
<sim_IPC>      0.4083
@ 219
<NTsim_num_insn>          89
<NTsim_cycle>         219
<sim_IPC>      0.4064
@ 220
<NTsim_num_insn>          89
<NTsim_cycle>         220
<sim_IPC>      0.4045
@ 221
<NTsim_num_insn>          89
<NTsim_cycle>         221
<sim_IPC>      0.4027
@ 222
<NTsim_num_insn>          89
<NTsim_cycle>         222
<sim_IPC>      0.4009
@ 223
<NTsim_num_insn>          89
<NTsim_cycle>         223
<sim_IPC>      0.3991
@ 224
<NTsim_num_insn>          89
<NTsim_cycle>         224
<sim_IPC>      0.3973
@ 225
<NTsim_num_insn>          89
<NTsim_cycle>         225
<sim_IPC>      0.3956
@ 226
<NTsim_num_insn>          89
<NTsim_cycle>         226
<sim_IPC>      0.3938
@ 227
<NTsim_num_insn>          89
<NTsim_cycle>         227
<sim_IPC>      0.3921
@ 228
<NTsim_num_insn>          89
<NTsim_cycle>         228
<sim_IPC>      0.3904
@ 229
<NTsim_num_insn>          89
<NTsim_cycle>         229
<sim_IPC>      0.3886
@ 230
<NTsim_num_insn>          89
<NTsim_cycle>         230
<sim_IPC>      0.3870
@ 231
<NTsim_num_insn>          89
<NTsim_cycle>         231
<sim_IPC>      0.3853
@ 232
<NTsim_num_insn>          89
<NTsim_cycle>         232
<sim_IPC>      0.3836
@ 233
<NTsim_num_insn>          89
<NTsim_cycle>         233
<sim_IPC>      0.3820
@ 234
<NTsim_num_insn>          89
<NTsim_cycle>         234
<sim_IPC>      0.3803
@ 235
<NTsim_num_insn>          89
<NTsim_cycle>         235
<sim_IPC>      0.3787
@ 236
<NTsim_num_insn>          89
<NTsim_cycle>         236
<sim_IPC>      0.3771
@ 237
<NTsim_num_insn>          89
<NTsim_cycle>         237
<sim_IPC>      0.3755
@ 238
<NTsim_num_insn>          89
<NTsim_cycle>         238
<sim_IPC>      0.3739
@ 239
<NTsim_num_insn>          89
<NTsim_cycle>         239
<sim_IPC>      0.3724
@ 240
<NTsim_num_insn>          89
<NTsim_cycle>         240
<sim_IPC>      0.3708
@ 241
<NTsim_num_insn>          89
<NTsim_cycle>         241
<sim_IPC>      0.3693
@ 242
<NTsim_num_insn>          89
<NTsim_cycle>         242
<sim_IPC>      0.3678
@ 243
* 181 WB 0x000 0 0x000
* 176 WB 0x000 0 0x000
* 171 WB 0x000 0 0x000
* 166 WB 0x000 0 0x000
* 161 WB 0x000 0 0x000
* 156 WB 0x000 0 0x000
* 153 EX 0x000 0 0x001
* 158 EX 0x000 0 0x001
* 163 EX 0x000 0 0x001
* 168 EX 0x000 0 0x001
<NTsim_num_insn>          89
<NTsim_cycle>         243
<sim_IPC>      0.3663
@ 244
* 156 CT 0x000 0 0x000
- 156
* 168 WB 0x000 0 0x000
* 163 WB 0x000 0 0x000
* 158 WB 0x000 0 0x000
* 153 WB 0x000 0 0x000
* 154 EX 0x000 0 0x001
* 159 EX 0x000 0 0x001
* 164 EX 0x000 0 0x001
* 169 EX 0x000 0 0x001
<NTsim_num_insn>          89
<NTsim_cycle>         244
<sim_IPC>      0.3648
@ 245
* 153 CT 0x000 0 0x000
- 153
* 169 WB 0x000 0 0x000
* 164 WB 0x000 0 0x000
* 159 WB 0x000 0 0x000
* 154 WB 0x000 0 0x000
* 173 EX 0x000 0 0x001
* 178 EX 0x000 0 0x001
* 179 DA 0x000 0 0x000
+ 185 0x0000a514 0x00000000 ldr  r3,[r0,#4]!
* 185 IF 0x000 0 0x001
<NTsim_num_insn>          90
<NTsim_cycle>         245
<sim_IPC>      0.3673
@ 246
* 154 CT 0x000 0 0x000
- 154
* 160 CT 0x000 0 0x000
- 160
* 161 CT 0x000 0 0x000
- 161
* 158 CT 0x000 0 0x000
- 158
* 178 WB 0x000 0 0x000
* 173 WB 0x000 0 0x000
* 174 EX 0x000 0 0x001
* 179 EX 0x000 0 0x001
* 182 DA 0x000 0 0x000
- 182
+ 186 0x0000a514 0x00000000 agen  r0,r0,4
* 186 DA 0x000 0 0x000
+ 187 0x0000a514 0x00000000 ldp  r3,[r0]
* 187 DA 0x000 0 0x000
* 183 DA 0x000 0 0x000
* 184 DA 0x000 0 0x000
+ 188 0x0000a518 0x00000000 cmp  r3,#0 (0 >>> 0)
* 188 IF 0x000 0 0x001
+ 189 0x0000a51c 0x00000000 bne  0xfffffff8
* 189 IF 0x000 0 0x001
<NTsim_num_insn>          93
<NTsim_cycle>         246
<sim_IPC>      0.3780
@ 247
* 159 CT 0x000 0 0x000
- 159
* 165 CT 0x000 0 0x000
- 165
* 166 CT 0x000 0 0x000
- 166
* 163 CT 0x000 0 0x000
- 163
* 179 WB 0x000 0 0x000
* 174 WB 0x000 0 0x000
* 186 EX 0x010 247 0x001
* 185 DA 0x000 0 0x000
- 185
+ 190 0x0000a514 0x00000000 agen  r0,r0,4
* 190 DA 0x000 0 0x000
+ 191 0x0000a514 0x00000000 ldp  r3,[r0]
* 191 DA 0x000 0 0x000
* 188 DA 0x000 0 0x000
* 189 DA 0x000 0 0x000
+ 192 0x0000a514 0x00000000 ldr  r3,[r0,#4]!
* 192 IF 0x000 0 0x001
+ 193 0x0000a518 0x00000000 cmp  r3,#0 (0 >>> 0)
* 193 IF 0x000 0 0x001
+ 194 0x0000a51c 0x00000000 bne  0xfffffff8
* 194 IF 0x000 0 0x001
<NTsim_num_insn>          96
<NTsim_cycle>         247
<sim_IPC>      0.3887
@ 248
* 164 CT 0x000 0 0x000
- 164
* 170 CT 0x000 0 0x000
- 170
* 171 CT 0x000 0 0x000
- 171
* 168 CT 0x000 0 0x000
- 168
* 186 WB 0x000 0 0x000
* 187 EX 0x000 0 0x001
* 190 EX 0x010 1 0x001
* 192 DA 0x000 0 0x000
- 192
+ 195 0x0000a514 0x00000000 agen  r0,r0,4
* 195 DA 0x000 0 0x000
+ 196 0x0000a514 0x00000000 ldp  r3,[r0]
* 196 DA 0x000 0 0x000
* 193 DA 0x000 0 0x000
* 194 DA 0x000 0 0x000
+ 197 0x0000a514 0x00000000 ldr  r3,[r0,#4]!
* 197 IF 0x000 0 0x001
+ 198 0x0000a518 0x00000000 cmp  r3,#0 (0 >>> 0)
* 198 IF 0x000 0 0x001
+ 199 0x0000a51c 0x00000000 bne  0xfffffff8
* 199 IF 0x000 0 0x001
<NTsim_num_insn>          99
<NTsim_cycle>         248
<sim_IPC>      0.3992
@ 249
* 169 CT 0x000 0 0x000
- 169
* 175 CT 0x000 0 0x000
- 175
* 176 CT 0x000 0 0x000
- 176
* 173 CT 0x000 0 0x000
- 173
* 190 WB 0x000 0 0x000
* 187 WB 0x000 0 0x000
* 191 EX 0x000 0 0x001
* 183 EX 0x000 0 0x001
* 195 EX 0x010 1 0x001
* 197 DA 0x000 0 0x000
- 197
+ 200 0x0000a514 0x00000000 agen  r0,r0,4
* 200 DA 0x000 0 0x000
+ 201 0x0000a514 0x00000000 ldp  r3,[r0]
* 201 DA 0x000 0 0x000
* 198 DA 0x000 0 0x000
* 199 DA 0x000 0 0x000
+ 202 0x0000a514 0x00000000 ldr  r3,[r0,#4]!
* 202 IF 0x000 0 0x001
+ 203 0x0000a518 0x00000000 cmp  r3,#0 (0 >>> 0)
* 203 IF 0x000 0 0x001
+ 204 0x0000a51c 0x00000000 bne  0xfffffff8
* 204 IF 0x000 0 0x001
<NTsim_num_insn>         102
<NTsim_cycle>         249
<sim_IPC>      0.4096
@ 250
* 174 CT 0x000 0 0x000
- 174
* 180 CT 0x000 0 0x000
- 180
* 181 CT 0x000 0 0x000
- 181
* 178 CT 0x000 0 0x000
- 178
* 195 WB 0x000 0 0x000
* 183 WB 0x000 0 0x000
* 191 WB 0x000 0 0x000
* 196 EX 0x001 6 0x001
* 184 EX 0x000 0 0x001
* 188 EX 0x000 0 0x001
* 200 EX 0x010 6 0x001
* 202 DA 0x000 0 0x000
- 202
+ 205 0x0000a514 0x00000000 agen  r0,r0,4
* 205 DA 0x000 0 0x000
+ 206 0x0000a514 0x00000000 ldp  r3,[r0]
* 206 DA 0x000 0 0x000
* 203 DA 0x000 0 0x000
* 204 DA 0x000 0 0x000
+ 207 0x0000a514 0x00000000 ldr  r3,[r0,#4]!
* 207 IF 0x000 0 0x001
+ 208 0x0000a518 0x00000000 cmp  r3,#0 (0 >>> 0)
* 208 IF 0x000 0 0x001
+ 209 0x0000a51c 0x00000000 bne  0xfffffff8
* 209 IF 0x000 0 0x001
<NTsim_num_insn>         105
<NTsim_cycle>         250
<sim_IPC>      0.4200
@ 251
* 179 CT 0x000 0 0x000
- 179
* 186 CT 0x000 0 0x000
- 186
* 187 CT 0x000 0 0x000
- 187
* 183 CT 0x000 0 0x000
- 183
* 200 WB 0x000 0 0x000
* 188 WB 0x000 0 0x000
* 184 WB 0x000 0 0x000
* 201 EX 0x001 5 0x001
* 189 EX 0x000 0 0x001
* 205 EX 0x010 5 0x001
* 207 DA 0x000 0 0x000
- 207
+ 210 0x0000a514 0x00000000 agen  r0,r0,4
* 210 DA 0x000 0 0x000
+ 211 0x0000a514 0x00000000 ldp  r3,[r0]
* 211 DA 0x000 0 0x000
* 208 DA 0x000 0 0x000
* 209 DA 0x000 0 0x000
+ 212 0x0000a514 0x00000000 ldr  r3,[r0,#4]!
* 212 IF 0x000 0 0x001
+ 213 0x0000a518 0x00000000 cmp  r3,#0 (0 >>> 0)
* 213 IF 0x000 0 0x001
+ 214 0x0000a51c 0x00000000 bne  0xfffffff8
* 214 IF 0x000 0 0x001
<NTsim_num_insn>         108
<NTsim_cycle>         251
<sim_IPC>      0.4303
@ 252
* 184 CT 0x000 0 0x000
- 184
* 190 CT 0x000 0 0x000
- 190
* 191 CT 0x000 0 0x000
- 191
* 188 CT 0x000 0 0x000
- 188
* 205 WB 0x000 0 0x000
* 189 WB 0x000 0 0x000
* 206 EX 0x001 4 0x001
* 210 EX 0x010 4 0x001
* 212 DA 0x000 0 0x000
- 212
+ 215 0x0000a514 0x00000000 agen  r0,r0,4
* 215 DA 0x000 0 0x000
+ 216 0x0000a514 0x00000000 ldp  r3,[r0]
* 216 DA 0x000 0 0x000
* 213 DA 0x000 0 0x000
* 214 DA 0x000 0 0x000
+ 217 0x0000a514 0x00000000 ldr  r3,[r0,#4]!
* 217 IF 0x000 0 0x001
+ 218 0x0000a518 0x00000000 cmp  r3,#0 (0 >>> 0)
* 218 IF 0x000 0 0x001
+ 219 0x0000a51c 0x00000000 bne  0xfffffff8
* 219 IF 0x000 0 0x001
<NTsim_num_insn>         111
<NTsim_cycle>         252
<sim_IPC>      0.4405
@ 253
* 189 CT 0x000 0 0x000
- 189
* 195 CT 0x000 0 0x000
- 195
* 210 WB 0x000 0 0x000
* 211 EX 0x001 3 0x001
* 215 EX 0x010 3 0x001
* 217 DA 0x000 0 0x000
- 217
+ 220 0x0000a514 0x00000000 agen  r0,r0,4
* 220 DA 0x000 0 0x000
+ 221 0x0000a514 0x00000000 ldp  r3,[r0]
* 221 DA 0x000 0 0x000
* 218 DA 0x000 0 0x000
+ 222 0x0000a514 0x00000000 ldr  r3,[r0,#4]!
* 222 IF 0x000 0 0x001
+ 223 0x0000a518 0x00000000 cmp  r3,#0 (0 >>> 0)
* 223 IF 0x000 0 0x001
+ 224 0x0000a51c 0x00000000 bne  0xfffffff8
* 224 IF 0x000 0 0x001
<NTsim_num_insn>         113
<NTsim_cycle>         253
<sim_IPC>      0.4466
@ 254
* 215 WB 0x000 0 0x000
* 216 EX 0x001 2 0x001
* 220 EX 0x010 2 0x001
<NTsim_num_insn>         113
<NTsim_cycle>         254
<sim_IPC>      0.4449
@ 255
* 220 WB 0x000 0 0x000
* 221 EX 0x000 0 0x001
<NTsim_num_insn>         113
<NTsim_cycle>         255
<sim_IPC>      0.4431
@ 256
* 221 WB 0x000 0 0x000
* 216 WB 0x000 0 0x000
* 211 WB 0x000 0 0x000
* 206 WB 0x000 0 0x000
* 201 WB 0x000 0 0x000
* 196 WB 0x000 0 0x000
* 193 EX 0x000 0 0x001
* 198 EX 0x000 0 0x001
* 203 EX 0x000 0 0x001
* 208 EX 0x000 0 0x001
<NTsim_num_insn>         113
<NTsim_cycle>         256
<sim_IPC>      0.4414
@ 257
* 196 CT 0x000 0 0x000
- 196
* 208 WB 0x000 0 0x000
* 203 WB 0x000 0 0x000
* 198 WB 0x000 0 0x000
* 193 WB 0x000 0 0x000
* 194 EX 0x000 0 0x001
* 199 EX 0x000 0 0x001
* 204 EX 0x000 0 0x001
* 209 EX 0x000 0 0x001
<NTsim_num_insn>         113
<NTsim_cycle>         257
<sim_IPC>      0.4397
@ 258
* 193 CT 0x000 0 0x000
- 193
* 209 WB 0x000 0 0x000
* 204 WB 0x000 0 0x000
* 199 WB 0x000 0 0x000
* 194 WB 0x000 0 0x000
* 213 EX 0x000 0 0x001
* 218 EX 0x000 0 0x001
* 219 DA 0x000 0 0x000
+ 225 0x0000a514 0x00000000 ldr  r3,[r0,#4]!
* 225 IF 0x000 0 0x001
<NTsim_num_insn>         114
<NTsim_cycle>         258
<sim_IPC>      0.4419
@ 259
* 194 CT 0x000 0 0x000
- 194
* 200 CT 0x000 0 0x000
- 200
* 201 CT 0x000 0 0x000
- 201
* 198 CT 0x000 0 0x000
- 198
* 218 WB 0x000 0 0x000
* 213 WB 0x000 0 0x000
* 214 EX 0x000 0 0x001
* 219 EX 0x000 0 0x001
* 222 DA 0x000 0 0x000
- 222
+ 226 0x0000a514 0x00000000 agen  r0,r0,4
* 226 DA 0x000 0 0x000
+ 227 0x0000a514 0x00000000 ldp  r3,[r0]
* 227 DA 0x000 0 0x000
* 223 DA 0x000 0 0x000
* 224 DA 0x000 0 0x000
+ 228 0x0000a518 0x00000000 cmp  r3,#0 (0 >>> 0)
* 228 IF 0x000 0 0x001
+ 229 0x0000a51c 0x00000000 bne  0xfffffff8
* 229 IF 0x000 0 0x001
<NTsim_num_insn>         117
<NTsim_cycle>         259
<sim_IPC>      0.4517
@ 260
* 199 CT 0x000 0 0x000
- 199
* 205 CT 0x000 0 0x000
- 205
* 206 CT 0x000 0 0x000
- 206
* 203 CT 0x000 0 0x000
- 203
* 219 WB 0x000 0 0x000
* 214 WB 0x000 0 0x000
* 226 EX 0x010 260 0x001
* 225 DA 0x000 0 0x000
- 225
+ 230 0x0000a514 0x00000000 agen  r0,r0,4
* 230 DA 0x000 0 0x000
+ 231 0x0000a514 0x00000000 ldp  r3,[r0]
* 231 DA 0x000 0 0x000
* 228 DA 0x000 0 0x000
* 229 DA 0x000 0 0x000
+ 232 0x0000a514 0x00000000 ldr  r3,[r0,#4]!
* 232 IF 0x000 0 0x001
+ 233 0x0000a518 0x00000000 cmp  r3,#0 (0 >>> 0)
* 233 IF 0x000 0 0x001
+ 234 0x0000a51c 0x00000000 bne  0xfffffff8
* 234 IF 0x000 0 0x001
<NTsim_num_insn>         120
<NTsim_cycle>         260
<sim_IPC>      0.4615
@ 261
* 204 CT 0x000 0 0x000
- 204
* 210 CT 0x000 0 0x000
- 210
* 211 CT 0x000 0 0x000
- 211
* 208 CT 0x000 0 0x000
- 208
* 226 WB 0x000 0 0x000
* 227 EX 0x000 0 0x001
* 230 EX 0x010 1 0x001
* 232 DA 0x000 0 0x000
- 232
+ 235 0x0000a514 0x00000000 agen  r0,r0,4
* 235 DA 0x000 0 0x000
+ 236 0x0000a514 0x00000000 ldp  r3,[r0]
* 236 DA 0x000 0 0x000
* 233 DA 0x000 0 0x000
* 234 DA 0x000 0 0x000
+ 237 0x0000a514 0x00000000 ldr  r3,[r0,#4]!
* 237 IF 0x000 0 0x001
+ 238 0x0000a518 0x00000000 cmp  r3,#0 (0 >>> 0)
* 238 IF 0x000 0 0x001
+ 239 0x0000a51c 0x00000000 bne  0xfffffff8
* 239 IF 0x000 0 0x001
<NTsim_num_insn>         123
<NTsim_cycle>         261
<sim_IPC>      0.4713
@ 262
* 209 CT 0x000 0 0x000
- 209
* 215 CT 0x000 0 0x000
- 215
* 216 CT 0x000 0 0x000
- 216
* 213 CT 0x000 0 0x000
- 213
* 230 WB 0x000 0 0x000
* 227 WB 0x000 0 0x000
* 231 EX 0x000 0 0x001
* 223 EX 0x000 0 0x001
* 235 EX 0x010 1 0x001
* 237 DA 0x000 0 0x000
- 237
+ 240 0x0000a514 0x00000000 agen  r0,r0,4
* 240 DA 0x000 0 0x000
+ 241 0x0000a514 0x00000000 ldp  r3,[r0]
* 241 DA 0x000 0 0x000
* 238 DA 0x000 0 0x000
* 239 DA 0x000 0 0x000
+ 242 0x0000a514 0x00000000 ldr  r3,[r0,#4]!
* 242 IF 0x000 0 0x001
+ 243 0x0000a518 0x00000000 cmp  r3,#0 (0 >>> 0)
* 243 IF 0x000 0 0x001
+ 244 0x0000a51c 0x00000000 bne  0xfffffff8
* 244 IF 0x000 0 0x001
<NTsim_num_insn>         126
<NTsim_cycle>         262
<sim_IPC>      0.4809
@ 263
* 214 CT 0x000 0 0x000
- 214
* 220 CT 0x000 0 0x000
- 220
* 221 CT 0x000 0 0x000
- 221
* 218 CT 0x000 0 0x000
- 218
* 235 WB 0x000 0 0x000
* 223 WB 0x000 0 0x000
* 231 WB 0x000 0 0x000
* 236 EX 0x001 32 0x001
* 224 EX 0x000 0 0x001
* 228 EX 0x000 0 0x001
* 240 EX 0x010 32 0x001
* 242 DA 0x000 0 0x000
- 242
+ 245 0x0000a514 0x00000000 agen  r0,r0,4
* 245 DA 0x000 0 0x000
+ 246 0x0000a514 0x00000000 ldp  r3,[r0]
* 246 DA 0x000 0 0x000
* 243 DA 0x000 0 0x000
* 244 DA 0x000 0 0x000
+ 247 0x0000a514 0x00000000 ldr  r3,[r0,#4]!
* 247 IF 0x000 0 0x001
+ 248 0x0000a518 0x00000000 cmp  r3,#0 (0 >>> 0)
* 248 IF 0x000 0 0x001
+ 249 0x0000a51c 0x00000000 bne  0xfffffff8
* 249 IF 0x000 0 0x001
<NTsim_num_insn>         129
<NTsim_cycle>         263
<sim_IPC>      0.4905
@ 264
* 219 CT 0x000 0 0x000
- 219
* 226 CT 0x000 0 0x000
- 226
* 227 CT 0x000 0 0x000
- 227
* 223 CT 0x000 0 0x000
- 223
* 240 WB 0x000 0 0x000
* 228 WB 0x000 0 0x000
* 224 WB 0x000 0 0x000
* 241 EX 0x001 31 0x001
* 229 EX 0x000 0 0x001
* 245 EX 0x010 31 0x001
* 247 DA 0x000 0 0x000
- 247
+ 250 0x0000a514 0x00000000 agen  r0,r0,4
* 250 DA 0x000 0 0x000
+ 251 0x0000a514 0x00000000 ldp  r3,[r0]
* 251 DA 0x000 0 0x000
* 248 DA 0x000 0 0x000
* 249 DA 0x000 0 0x000
+ 252 0x0000a514 0x00000000 ldr  r3,[r0,#4]!
* 252 IF 0x000 0 0x001
+ 253 0x0000a518 0x00000000 cmp  r3,#0 (0 >>> 0)
* 253 IF 0x000 0 0x001
+ 254 0x0000a51c 0x00000000 bne  0xfffffff8
* 254 IF 0x000 0 0x001
<NTsim_num_insn>         132
<NTsim_cycle>         264
<sim_IPC>      0.5000
@ 265
* 224 CT 0x000 0 0x000
- 224
* 230 CT 0x000 0 0x000
- 230
* 231 CT 0x000 0 0x000
- 231
* 228 CT 0x000 0 0x000
- 228
* 245 WB 0x000 0 0x000
* 229 WB 0x000 0 0x000
* 246 EX 0x001 30 0x001
* 250 EX 0x010 30 0x001
* 252 DA 0x000 0 0x000
- 252
+ 255 0x0000a514 0x00000000 agen  r0,r0,4
* 255 DA 0x000 0 0x000
+ 256 0x0000a514 0x00000000 ldp  r3,[r0]
* 256 DA 0x000 0 0x000
* 253 DA 0x000 0 0x000
* 254 DA 0x000 0 0x000
+ 257 0x0000a514 0x00000000 ldr  r3,[r0,#4]!
* 257 IF 0x000 0 0x001
+ 258 0x0000a518 0x00000000 cmp  r3,#0 (0 >>> 0)
* 258 IF 0x000 0 0x001
+ 259 0x0000a51c 0x00000000 bne  0xfffffff8
* 259 IF 0x000 0 0x001
<NTsim_num_insn>         135
<NTsim_cycle>         265
<sim_IPC>      0.5094
@ 266
* 229 CT 0x000 0 0x000
- 229
* 235 CT 0x000 0 0x000
- 235
* 250 WB 0x000 0 0x000
* 251 EX 0x001 29 0x001
* 255 EX 0x010 29 0x001
* 257 DA 0x000 0 0x000
- 257
+ 260 0x0000a514 0x00000000 agen  r0,r0,4
* 260 DA 0x000 0 0x000
+ 261 0x0000a514 0x00000000 ldp  r3,[r0]
* 261 DA 0x000 0 0x000
* 258 DA 0x000 0 0x000
+ 262 0x0000a514 0x00000000 ldr  r3,[r0,#4]!
* 262 IF 0x000 0 0x001
+ 263 0x0000a518 0x00000000 cmp  r3,#0 (0 >>> 0)
* 263 IF 0x000 0 0x001
+ 264 0x0000a51c 0x00000000 bne  0xfffffff8
* 264 IF 0x000 0 0x001
<NTsim_num_insn>         137
<NTsim_cycle>         266
<sim_IPC>      0.5150
@ 267
* 255 WB 0x000 0 0x000
* 256 EX 0x001 28 0x001
* 260 EX 0x010 28 0x001
<NTsim_num_insn>         137
<NTsim_cycle>         267
<sim_IPC>      0.5131
@ 268
* 260 WB 0x000 0 0x000
* 261 EX 0x001 27 0x001
<NTsim_num_insn>         137
<NTsim_cycle>         268
<sim_IPC>      0.5112
@ 269
<NTsim_num_insn>         137
<NTsim_cycle>         269
<sim_IPC>      0.5093
@ 270
<NTsim_num_insn>         137
<NTsim_cycle>         270
<sim_IPC>      0.5074
@ 271
<NTsim_num_insn>         137
<NTsim_cycle>         271
<sim_IPC>      0.5055
@ 272
<NTsim_num_insn>         137
<NTsim_cycle>         272
<sim_IPC>      0.5037
@ 273
<NTsim_num_insn>         137
<NTsim_cycle>         273
<sim_IPC>      0.5018
@ 274
<NTsim_num_insn>         137
<NTsim_cycle>         274
<sim_IPC>      0.5000
@ 275
<NTsim_num_insn>         137
<NTsim_cycle>         275
<sim_IPC>      0.4982
@ 276
<NTsim_num_insn>         137
<NTsim_cycle>         276
<sim_IPC>      0.4964
@ 277
<NTsim_num_insn>         137
<NTsim_cycle>         277
<sim_IPC>      0.4946
@ 278
<NTsim_num_insn>         137
<NTsim_cycle>         278
<sim_IPC>      0.4928
@ 279
<NTsim_num_insn>         137
<NTsim_cycle>         279
<sim_IPC>      0.4910
@ 280
<NTsim_num_insn>         137
<NTsim_cycle>         280
<sim_IPC>      0.4893
@ 281
<NTsim_num_insn>         137
<NTsim_cycle>         281
<sim_IPC>      0.4875
@ 282
<NTsim_num_insn>         137
<NTsim_cycle>         282
<sim_IPC>      0.4858
@ 283
<NTsim_num_insn>         137
<NTsim_cycle>         283
<sim_IPC>      0.4841
@ 284
<NTsim_num_insn>         137
<NTsim_cycle>         284
<sim_IPC>      0.4824
@ 285
<NTsim_num_insn>         137
<NTsim_cycle>         285
<sim_IPC>      0.4807
@ 286
<NTsim_num_insn>         137
<NTsim_cycle>         286
<sim_IPC>      0.4790
@ 287
<NTsim_num_insn>         137
<NTsim_cycle>         287
<sim_IPC>      0.4774
@ 288
<NTsim_num_insn>         137
<NTsim_cycle>         288
<sim_IPC>      0.4757
@ 289
<NTsim_num_insn>         137
<NTsim_cycle>         289
<sim_IPC>      0.4740
@ 290
<NTsim_num_insn>         137
<NTsim_cycle>         290
<sim_IPC>      0.4724
@ 291
<NTsim_num_insn>         137
<NTsim_cycle>         291
<sim_IPC>      0.4708
@ 292
<NTsim_num_insn>         137
<NTsim_cycle>         292
<sim_IPC>      0.4692
@ 293
<NTsim_num_insn>         137
<NTsim_cycle>         293
<sim_IPC>      0.4676
@ 294
<NTsim_num_insn>         137
<NTsim_cycle>         294
<sim_IPC>      0.4660
@ 295
* 261 WB 0x000 0 0x000
* 256 WB 0x000 0 0x000
* 251 WB 0x000 0 0x000
* 246 WB 0x000 0 0x000
* 241 WB 0x000 0 0x000
* 236 WB 0x000 0 0x000
* 233 EX 0x000 0 0x001
* 238 EX 0x000 0 0x001
* 243 EX 0x000 0 0x001
* 248 EX 0x000 0 0x001
<NTsim_num_insn>         137
<NTsim_cycle>         295
<sim_IPC>      0.4644
@ 296
* 236 CT 0x000 0 0x000
- 236
* 248 WB 0x000 0 0x000
* 243 WB 0x000 0 0x000
* 238 WB 0x000 0 0x000
* 233 WB 0x000 0 0x000
* 234 EX 0x000 0 0x001
* 239 EX 0x000 0 0x001
* 244 EX 0x000 0 0x001
* 249 EX 0x000 0 0x001
<NTsim_num_insn>         137
<NTsim_cycle>         296
<sim_IPC>      0.4628
@ 297
* 233 CT 0x000 0 0x000
- 233
* 249 WB 0x000 0 0x000
* 244 WB 0x000 0 0x000
* 239 WB 0x000 0 0x000
* 234 WB 0x000 0 0x000
* 253 EX 0x000 0 0x001
* 258 EX 0x000 0 0x001
* 259 DA 0x000 0 0x000
+ 265 0x0000a514 0x00000000 ldr  r3,[r0,#4]!
* 265 IF 0x000 0 0x001
<NTsim_num_insn>         138
<NTsim_cycle>         297
<sim_IPC>      0.4646
@ 298
* 234 CT 0x000 0 0x000
- 234
* 240 CT 0x000 0 0x000
- 240
* 241 CT 0x000 0 0x000
- 241
* 238 CT 0x000 0 0x000
- 238
* 258 WB 0x000 0 0x000
* 253 WB 0x000 0 0x000
* 254 EX 0x000 0 0x001
* 259 EX 0x000 0 0x001
* 262 DA 0x000 0 0x000
- 262
+ 266 0x0000a514 0x00000000 agen  r0,r0,4
* 266 DA 0x000 0 0x000
+ 267 0x0000a514 0x00000000 ldp  r3,[r0]
* 267 DA 0x000 0 0x000
* 263 DA 0x000 0 0x000
* 264 DA 0x000 0 0x000
+ 268 0x0000a518 0x00000000 cmp  r3,#0 (0 >>> 0)
* 268 IF 0x000 0 0x001
+ 269 0x0000a51c 0x00000000 bne  0xfffffff8
* 269 IF 0x000 0 0x001
<NTsim_num_insn>         141
<NTsim_cycle>         298
<sim_IPC>      0.4732
@ 299
* 239 CT 0x000 0 0x000
- 239
* 245 CT 0x000 0 0x000
- 245
* 246 CT 0x000 0 0x000
- 246
* 243 CT 0x000 0 0x000
- 243
* 259 WB 0x000 0 0x000
* 254 WB 0x000 0 0x000
* 266 EX 0x010 299 0x001
* 265 DA 0x000 0 0x000
- 265
+ 270 0x0000a514 0x00000000 agen  r0,r0,4
* 270 DA 0x000 0 0x000
+ 271 0x0000a514 0x00000000 ldp  r3,[r0]
* 271 DA 0x000 0 0x000
* 268 DA 0x000 0 0x000
* 269 DA 0x000 0 0x000
+ 272 0x0000a514 0x00000000 ldr  r3,[r0,#4]!
* 272 IF 0x000 0 0x001
+ 273 0x0000a518 0x00000000 cmp  r3,#0 (0 >>> 0)
* 273 IF 0x000 0 0x001
+ 274 0x0000a51c 0x00000000 bne  0xfffffff8
* 274 IF 0x000 0 0x001
<NTsim_num_insn>         144
<NTsim_cycle>         299
<sim_IPC>      0.4816
@ 300
* 244 CT 0x000 0 0x000
- 244
* 250 CT 0x000 0 0x000
- 250
* 251 CT 0x000 0 0x000
- 251
* 248 CT 0x000 0 0x000
- 248
* 266 WB 0x000 0 0x000
* 267 EX 0x000 0 0x001
* 270 EX 0x010 1 0x001
* 272 DA 0x000 0 0x000
- 272
+ 275 0x0000a514 0x00000000 agen  r0,r0,4
* 275 DA 0x000 0 0x000
+ 276 0x0000a514 0x00000000 ldp  r3,[r0]
* 276 DA 0x000 0 0x000
* 273 DA 0x000 0 0x000
* 274 DA 0x000 0 0x000
+ 277 0x0000a514 0x00000000 ldr  r3,[r0,#4]!
* 277 IF 0x000 0 0x001
+ 278 0x0000a518 0x00000000 cmp  r3,#0 (0 >>> 0)
* 278 IF 0x000 0 0x001
+ 279 0x0000a51c 0x00000000 bne  0xfffffff8
* 279 IF 0x000 0 0x001
<NTsim_num_insn>         147
<NTsim_cycle>         300
<sim_IPC>      0.4900
@ 301
* 249 CT 0x000 0 0x000
- 249
* 255 CT 0x000 0 0x000
- 255
* 256 CT 0x000 0 0x000
- 256
* 253 CT 0x000 0 0x000
- 253
* 270 WB 0x000 0 0x000
* 267 WB 0x000 0 0x000
* 271 EX 0x000 0 0x001
* 263 EX 0x000 0 0x001
* 275 EX 0x010 1 0x001
* 277 DA 0x000 0 0x000
- 277
+ 280 0x0000a514 0x00000000 agen  r0,r0,4
* 280 DA 0x000 0 0x000
+ 281 0x0000a514 0x00000000 ldp  r3,[r0]
* 281 DA 0x000 0 0x000
* 278 DA 0x000 0 0x000
* 279 DA 0x000 0 0x000
+ 282 0x0000a514 0x00000000 ldr  r3,[r0,#4]!
* 282 IF 0x000 0 0x001
+ 283 0x0000a518 0x00000000 cmp  r3,#0 (0 >>> 0)
* 283 IF 0x000 0 0x001
+ 284 0x0000a51c 0x00000000 bne  0xfffffff8
* 284 IF 0x000 0 0x001
<NTsim_num_insn>         150
<NTsim_cycle>         301
<sim_IPC>      0.4983
@ 302
* 254 CT 0x000 0 0x000
- 254
* 260 CT 0x000 0 0x000
- 260
* 261 CT 0x000 0 0x000
- 261
* 258 CT 0x000 0 0x000
- 258
* 275 WB 0x000 0 0x000
* 263 WB 0x000 0 0x000
* 271 WB 0x000 0 0x000
* 276 EX 0x001 6 0x001
* 264 EX 0x000 0 0x001
* 268 EX 0x000 0 0x001
* 280 EX 0x010 6 0x001
* 282 DA 0x000 0 0x000
- 282
+ 285 0x0000a514 0x00000000 agen  r0,r0,4
* 285 DA 0x000 0 0x000
+ 286 0x0000a514 0x00000000 ldp  r3,[r0]
* 286 DA 0x000 0 0x000
* 283 DA 0x000 0 0x000
* 284 DA 0x000 0 0x000
+ 287 0x0000a514 0x00000000 ldr  r3,[r0,#4]!
* 287 IF 0x000 0 0x001
+ 288 0x0000a518 0x00000000 cmp  r3,#0 (0 >>> 0)
* 288 IF 0x000 0 0x001
+ 289 0x0000a51c 0x00000000 bne  0xfffffff8
* 289 IF 0x000 0 0x001
<NTsim_num_insn>         153
<NTsim_cycle>         302
<sim_IPC>      0.5066
@ 303
* 259 CT 0x000 0 0x000
- 259
* 266 CT 0x000 0 0x000
- 266
* 267 CT 0x000 0 0x000
- 267
* 263 CT 0x000 0 0x000
- 263
* 280 WB 0x000 0 0x000
* 268 WB 0x000 0 0x000
* 264 WB 0x000 0 0x000
* 281 EX 0x001 5 0x001
* 269 EX 0x000 0 0x001
* 285 EX 0x010 5 0x001
* 287 DA 0x000 0 0x000
- 287
+ 290 0x0000a514 0x00000000 agen  r0,r0,4
* 290 DA 0x000 0 0x000
+ 291 0x0000a514 0x00000000 ldp  r3,[r0]
* 291 DA 0x000 0 0x000
* 288 DA 0x000 0 0x000
* 289 DA 0x000 0 0x000
+ 292 0x0000a514 0x00000000 ldr  r3,[r0,#4]!
* 292 IF 0x000 0 0x001
+ 293 0x0000a518 0x00000000 cmp  r3,#0 (0 >>> 0)
* 293 IF 0x000 0 0x001
+ 294 0x0000a51c 0x00000000 bne  0xfffffff8
* 294 IF 0x000 0 0x001
<NTsim_num_insn>         156
<NTsim_cycle>         303
<sim_IPC>      0.5149
@ 304
* 264 CT 0x000 0 0x000
- 264
* 270 CT 0x000 0 0x000
- 270
* 271 CT 0x000 0 0x000
- 271
* 268 CT 0x000 0 0x000
- 268
* 285 WB 0x000 0 0x000
* 269 WB 0x000 0 0x000
* 286 EX 0x001 4 0x001
* 290 EX 0x010 4 0x001
* 292 DA 0x000 0 0x000
- 292
+ 295 0x0000a514 0x00000000 agen  r0,r0,4
* 295 DA 0x000 0 0x000
+ 296 0x0000a514 0x00000000 ldp  r3,[r0]
* 296 DA 0x000 0 0x000
* 293 DA 0x000 0 0x000
* 294 DA 0x000 0 0x000
+ 297 0x0000a514 0x00000000 ldr  r3,[r0,#4]!
* 297 IF 0x000 0 0x001
+ 298 0x0000a518 0x00000000 cmp  r3,#0 (0 >>> 0)
* 298 IF 0x000 0 0x001
+ 299 0x0000a51c 0x00000000 bne  0xfffffff8
* 299 IF 0x000 0 0x001
<NTsim_num_insn>         159
<NTsim_cycle>         304
<sim_IPC>      0.5230
@ 305
* 269 CT 0x000 0 0x000
- 269
* 275 CT 0x000 0 0x000
- 275
* 290 WB 0x000 0 0x000
* 291 EX 0x001 3 0x001
* 295 EX 0x010 3 0x001
* 297 DA 0x000 0 0x000
- 297
+ 300 0x0000a514 0x00000000 agen  r0,r0,4
* 300 DA 0x000 0 0x000
+ 301 0x0000a514 0x00000000 ldp  r3,[r0]
* 301 DA 0x000 0 0x000
* 298 DA 0x000 0 0x000
+ 302 0x0000a514 0x00000000 ldr  r3,[r0,#4]!
* 302 IF 0x000 0 0x001
+ 303 0x0000a518 0x00000000 cmp  r3,#0 (0 >>> 0)
* 303 IF 0x000 0 0x001
+ 304 0x0000a51c 0x00000000 bne  0xfffffff8
* 304 IF 0x000 0 0x001
<NTsim_num_insn>         161
<NTsim_cycle>         305
<sim_IPC>      0.5279
@ 306
* 295 WB 0x000 0 0x000
* 296 EX 0x001 2 0x001
* 300 EX 0x010 2 0x001
<NTsim_num_insn>         161
<NTsim_cycle>         306
<sim_IPC>      0.5261
@ 307
* 300 WB 0x000 0 0x000
* 301 EX 0x000 0 0x001
<NTsim_num_insn>         161
<NTsim_cycle>         307
<sim_IPC>      0.5244
@ 308
* 301 WB 0x000 0 0x000
* 296 WB 0x000 0 0x000
* 291 WB 0x000 0 0x000
* 286 WB 0x000 0 0x000
* 281 WB 0x000 0 0x000
* 276 WB 0x000 0 0x000
* 273 EX 0x000 0 0x001
* 278 EX 0x000 0 0x001
* 283 EX 0x000 0 0x001
* 288 EX 0x000 0 0x001
<NTsim_num_insn>         161
<NTsim_cycle>         308
<sim_IPC>      0.5227
@ 309
* 276 CT 0x000 0 0x000
- 276
* 288 WB 0x000 0 0x000
* 283 WB 0x000 0 0x000
* 278 WB 0x000 0 0x000
* 273 WB 0x000 0 0x000
* 274 EX 0x000 0 0x001
* 279 EX 0x000 0 0x001
* 284 EX 0x000 0 0x001
* 289 EX 0x000 0 0x001
<NTsim_num_insn>         161
<NTsim_cycle>         309
<sim_IPC>      0.5210
@ 310
* 273 CT 0x000 0 0x000
- 273
* 289 WB 0x000 0 0x000
* 284 WB 0x000 0 0x000
* 279 WB 0x000 0 0x000
* 274 WB 0x000 0 0x000
* 293 EX 0x000 0 0x001
* 298 EX 0x000 0 0x001
* 299 DA 0x000 0 0x000
+ 305 0x0000a514 0x00000000 ldr  r3,[r0,#4]!
* 305 IF 0x000 0 0x001
<NTsim_num_insn>         162
<NTsim_cycle>         310
<sim_IPC>      0.5226
@ 311
* 274 CT 0x000 0 0x000
- 274
* 280 CT 0x000 0 0x000
- 280
* 281 CT 0x000 0 0x000
- 281
* 278 CT 0x000 0 0x000
- 278
* 298 WB 0x000 0 0x000
* 293 WB 0x000 0 0x000
* 294 EX 0x000 0 0x001
* 299 EX 0x000 0 0x001
* 302 DA 0x000 0 0x000
- 302
+ 306 0x0000a514 0x00000000 agen  r0,r0,4
* 306 DA 0x000 0 0x000
+ 307 0x0000a514 0x00000000 ldp  r3,[r0]
* 307 DA 0x000 0 0x000
* 303 DA 0x000 0 0x000
* 304 DA 0x000 0 0x000
+ 308 0x0000a518 0x00000000 cmp  r3,#0 (0 >>> 0)
* 308 IF 0x000 0 0x001
+ 309 0x0000a51c 0x00000000 bne  0xfffffff8
* 309 IF 0x000 0 0x001
<NTsim_num_insn>         165
<NTsim_cycle>         311
<sim_IPC>      0.5305
@ 312
* 279 CT 0x000 0 0x000
- 279
* 285 CT 0x000 0 0x000
- 285
* 286 CT 0x000 0 0x000
- 286
* 283 CT 0x000 0 0x000
- 283
* 299 WB 0x000 0 0x000
* 294 WB 0x000 0 0x000
* 306 EX 0x010 312 0x001
* 305 DA 0x000 0 0x000
- 305
+ 310 0x0000a514 0x00000000 agen  r0,r0,4
* 310 DA 0x000 0 0x000
+ 311 0x0000a514 0x00000000 ldp  r3,[r0]
* 311 DA 0x000 0 0x000
* 308 DA 0x000 0 0x000
* 309 DA 0x000 0 0x000
+ 312 0x0000a514 0x00000000 ldr  r3,[r0,#4]!
* 312 IF 0x000 0 0x001
+ 313 0x0000a518 0x00000000 cmp  r3,#0 (0 >>> 0)
* 313 IF 0x000 0 0x001
+ 314 0x0000a51c 0x00000000 bne  0xfffffff8
* 314 IF 0x000 0 0x001
<NTsim_num_insn>         168
<NTsim_cycle>         312
<sim_IPC>      0.5385
@ 313
* 284 CT 0x000 0 0x000
- 284
* 290 CT 0x000 0 0x000
- 290
* 291 CT 0x000 0 0x000
- 291
* 288 CT 0x000 0 0x000
- 288
* 306 WB 0x000 0 0x000
* 307 EX 0x000 0 0x001
* 310 EX 0x010 1 0x001
* 312 DA 0x000 0 0x000
- 312
+ 315 0x0000a514 0x00000000 agen  r0,r0,4
* 315 DA 0x000 0 0x000
+ 316 0x0000a514 0x00000000 ldp  r3,[r0]
* 316 DA 0x000 0 0x000
* 313 DA 0x000 0 0x000
* 314 DA 0x000 0 0x000
+ 317 0x0000a514 0x00000000 ldr  r3,[r0,#4]!
* 317 IF 0x000 0 0x001
+ 318 0x0000a518 0x00000000 cmp  r3,#0 (0 >>> 0)
* 318 IF 0x000 0 0x001
+ 319 0x0000a51c 0x00000000 bne  0xfffffff8
* 319 IF 0x000 0 0x001
<NTsim_num_insn>         171
<NTsim_cycle>         313
<sim_IPC>      0.5463
@ 314
* 289 CT 0x000 0 0x000
- 289
* 295 CT 0x000 0 0x000
- 295
* 296 CT 0x000 0 0x000
- 296
* 293 CT 0x000 0 0x000
- 293
* 310 WB 0x000 0 0x000
* 307 WB 0x000 0 0x000
* 311 EX 0x000 0 0x001
* 303 EX 0x000 0 0x001
* 315 EX 0x010 1 0x001
* 317 DA 0x000 0 0x000
- 317
+ 320 0x0000a514 0x00000000 agen  r0,r0,4
* 320 DA 0x000 0 0x000
+ 321 0x0000a514 0x00000000 ldp  r3,[r0]
* 321 DA 0x000 0 0x000
* 318 DA 0x000 0 0x000
* 319 DA 0x000 0 0x000
+ 322 0x0000a514 0x00000000 ldr  r3,[r0,#4]!
* 322 IF 0x000 0 0x001
+ 323 0x0000a518 0x00000000 cmp  r3,#0 (0 >>> 0)
* 323 IF 0x000 0 0x001
+ 324 0x0000a51c 0x00000000 bne  0xfffffff8
* 324 IF 0x000 0 0x001
<NTsim_num_insn>         174
<NTsim_cycle>         314
<sim_IPC>      0.5541
@ 315
* 294 CT 0x000 0 0x000
- 294
* 300 CT 0x000 0 0x000
- 300
* 301 CT 0x000 0 0x000
- 301
* 298 CT 0x000 0 0x000
- 298
* 315 WB 0x000 0 0x000
* 303 WB 0x000 0 0x000
* 311 WB 0x000 0 0x000
* 316 EX 0x001 32 0x001
* 304 EX 0x000 0 0x001
* 308 EX 0x000 0 0x001
* 320 EX 0x010 32 0x001
* 322 DA 0x000 0 0x000
- 322
+ 325 0x0000a514 0x00000000 agen  r0,r0,4
* 325 DA 0x000 0 0x000
+ 326 0x0000a514 0x00000000 ldp  r3,[r0]
* 326 DA 0x000 0 0x000
* 323 DA 0x000 0 0x000
* 324 DA 0x000 0 0x000
+ 327 0x0000a514 0x00000000 ldr  r3,[r0,#4]!
* 327 IF 0x000 0 0x001
+ 328 0x0000a518 0x00000000 cmp  r3,#0 (0 >>> 0)
* 328 IF 0x000 0 0x001
+ 329 0x0000a51c 0x00000000 bne  0xfffffff8
* 329 IF 0x000 0 0x001
<NTsim_num_insn>         177
<NTsim_cycle>         315
<sim_IPC>      0.5619
@ 316
* 299 CT 0x000 0 0x000
- 299
* 306 CT 0x000 0 0x000
- 306
* 307 CT 0x000 0 0x000
- 307
* 303 CT 0x000 0 0x000
- 303
* 320 WB 0x000 0 0x000
* 308 WB 0x000 0 0x000
* 304 WB 0x000 0 0x000
* 321 EX 0x001 31 0x001
* 309 EX 0x000 0 0x001
* 325 EX 0x010 31 0x001
* 327 DA 0x000 0 0x000
- 327
+ 330 0x0000a514 0x00000000 agen  r0,r0,4
* 330 DA 0x000 0 0x000
+ 331 0x0000a514 0x00000000 ldp  r3,[r0]
* 331 DA 0x000 0 0x000
* 328 DA 0x000 0 0x000
* 329 DA 0x000 0 0x000
+ 332 0x0000a514 0x00000000 ldr  r3,[r0,#4]!
* 332 IF 0x000 0 0x001
+ 333 0x0000a518 0x00000000 cmp  r3,#0 (0 >>> 0)
* 333 IF 0x000 0 0x001
+ 334 0x0000a51c 0x00000000 bne  0xfffffff8
* 334 IF 0x000 0 0x001
<NTsim_num_insn>         180
<NTsim_cycle>         316
<sim_IPC>      0.5696
@ 317
* 304 CT 0x000 0 0x000
- 304
* 310 CT 0x000 0 0x000
- 310
* 311 CT 0x000 0 0x000
- 311
* 308 CT 0x000 0 0x000
- 308
* 325 WB 0x000 0 0x000
* 309 WB 0x000 0 0x000
* 326 EX 0x001 30 0x001
* 330 EX 0x010 30 0x001
* 332 DA 0x000 0 0x000
- 332
+ 335 0x0000a514 0x00000000 agen  r0,r0,4
* 335 DA 0x000 0 0x000
+ 336 0x0000a514 0x00000000 ldp  r3,[r0]
* 336 DA 0x000 0 0x000
* 333 DA 0x000 0 0x000
* 334 DA 0x000 0 0x000
+ 337 0x0000a514 0x00000000 ldr  r3,[r0,#4]!
* 337 IF 0x000 0 0x001
+ 338 0x0000a518 0x00000000 cmp  r3,#0 (0 >>> 0)
* 338 IF 0x000 0 0x001
+ 339 0x0000a51c 0x00000000 bne  0xfffffff8
* 339 IF 0x000 0 0x001
<NTsim_num_insn>         183
<NTsim_cycle>         317
<sim_IPC>      0.5773
@ 318
* 309 CT 0x000 0 0x000
- 309
* 315 CT 0x000 0 0x000
- 315
* 330 WB 0x000 0 0x000
* 331 EX 0x001 29 0x001
* 335 EX 0x010 29 0x001
* 337 DA 0x000 0 0x000
- 337
+ 340 0x0000a514 0x00000000 agen  r0,r0,4
* 340 DA 0x000 0 0x000
+ 341 0x0000a514 0x00000000 ldp  r3,[r0]
* 341 DA 0x000 0 0x000
* 338 DA 0x000 0 0x000
+ 342 0x0000a514 0x00000000 ldr  r3,[r0,#4]!
* 342 IF 0x000 0 0x001
+ 343 0x0000a518 0x00000000 cmp  r3,#0 (0 >>> 0)
* 343 IF 0x000 0 0x001
+ 344 0x0000a51c 0x00000000 bne  0xfffffff8
* 344 IF 0x000 0 0x001
<NTsim_num_insn>         185
<NTsim_cycle>         318
<sim_IPC>      0.5818
@ 319
* 335 WB 0x000 0 0x000
* 336 EX 0x001 28 0x001
* 340 EX 0x010 28 0x001
<NTsim_num_insn>         185
<NTsim_cycle>         319
<sim_IPC>      0.5799
@ 320
* 340 WB 0x000 0 0x000
* 341 EX 0x001 27 0x001
<NTsim_num_insn>         185
<NTsim_cycle>         320
<sim_IPC>      0.5781
@ 321
<NTsim_num_insn>         185
<NTsim_cycle>         321
<sim_IPC>      0.5763
@ 322
<NTsim_num_insn>         185
<NTsim_cycle>         322
<sim_IPC>      0.5745
@ 323
<NTsim_num_insn>         185
<NTsim_cycle>         323
<sim_IPC>      0.5728
@ 324
<NTsim_num_insn>         185
<NTsim_cycle>         324
<sim_IPC>      0.5710
@ 325
<NTsim_num_insn>         185
<NTsim_cycle>         325
<sim_IPC>      0.5692
@ 326
<NTsim_num_insn>         185
<NTsim_cycle>         326
<sim_IPC>      0.5675
@ 327
<NTsim_num_insn>         185
<NTsim_cycle>         327
<sim_IPC>      0.5657
@ 328
<NTsim_num_insn>         185
<NTsim_cycle>         328
<sim_IPC>      0.5640
@ 329
<NTsim_num_insn>         185
<NTsim_cycle>         329
<sim_IPC>      0.5623
@ 330
<NTsim_num_insn>         185
<NTsim_cycle>         330
<sim_IPC>      0.5606
@ 331
<NTsim_num_insn>         185
<NTsim_cycle>         331
<sim_IPC>      0.5589
@ 332
<NTsim_num_insn>         185
<NTsim_cycle>         332
<sim_IPC>      0.5572
@ 333
<NTsim_num_insn>         185
<NTsim_cycle>         333
<sim_IPC>      0.5556
@ 334
<NTsim_num_insn>         185
<NTsim_cycle>         334
<sim_IPC>      0.5539
@ 335
<NTsim_num_insn>         185
<NTsim_cycle>         335
<sim_IPC>      0.5522
@ 336
<NTsim_num_insn>         185
<NTsim_cycle>         336
<sim_IPC>      0.5506
@ 337
<NTsim_num_insn>         185
<NTsim_cycle>         337
<sim_IPC>      0.5490
@ 338
<NTsim_num_insn>         185
<NTsim_cycle>         338
<sim_IPC>      0.5473
@ 339
<NTsim_num_insn>         185
<NTsim_cycle>         339
<sim_IPC>      0.5457
@ 340
<NTsim_num_insn>         185
<NTsim_cycle>         340
<sim_IPC>      0.5441
@ 341
<NTsim_num_insn>         185
<NTsim_cycle>         341
<sim_IPC>      0.5425
@ 342
<NTsim_num_insn>         185
<NTsim_cycle>         342
<sim_IPC>      0.5409
@ 343
<NTsim_num_insn>         185
<NTsim_cycle>         343
<sim_IPC>      0.5394
@ 344
<NTsim_num_insn>         185
<NTsim_cycle>         344
<sim_IPC>      0.5378
@ 345
<NTsim_num_insn>         185
<NTsim_cycle>         345
<sim_IPC>      0.5362
@ 346
<NTsim_num_insn>         185
<NTsim_cycle>         346
<sim_IPC>      0.5347
@ 347
* 341 WB 0x000 0 0x000
* 336 WB 0x000 0 0x000
* 331 WB 0x000 0 0x000
* 326 WB 0x000 0 0x000
* 321 WB 0x000 0 0x000
* 316 WB 0x000 0 0x000
* 313 EX 0x000 0 0x001
* 318 EX 0x000 0 0x001
* 323 EX 0x000 0 0x001
* 328 EX 0x000 0 0x001
<NTsim_num_insn>         185
<NTsim_cycle>         347
<sim_IPC>      0.5331
@ 348
* 316 CT 0x000 0 0x000
- 316
* 328 WB 0x000 0 0x000
* 323 WB 0x000 0 0x000
* 318 WB 0x000 0 0x000
* 313 WB 0x000 0 0x000
* 314 EX 0x000 0 0x001
* 319 EX 0x000 0 0x001
* 324 EX 0x000 0 0x001
* 329 EX 0x000 0 0x001
<NTsim_num_insn>         185
<NTsim_cycle>         348
<sim_IPC>      0.5316
@ 349
* 313 CT 0x000 0 0x000
- 313
* 329 WB 0x000 0 0x000
* 324 WB 0x000 0 0x000
* 319 WB 0x000 0 0x000
* 314 WB 0x000 0 0x000
* 333 EX 0x000 0 0x001
* 338 EX 0x000 0 0x001
* 339 DA 0x000 0 0x000
+ 345 0x0000a514 0x00000000 ldr  r3,[r0,#4]!
* 345 IF 0x000 0 0x001
<NTsim_num_insn>         186
<NTsim_cycle>         349
<sim_IPC>      0.5330
@ 350
* 314 CT 0x000 0 0x000
- 314
* 320 CT 0x000 0 0x000
- 320
* 321 CT 0x000 0 0x000
- 321
* 318 CT 0x000 0 0x000
- 318
* 338 WB 0x000 0 0x000
* 333 WB 0x000 0 0x000
* 334 EX 0x000 0 0x001
* 339 EX 0x000 0 0x001
* 342 DA 0x000 0 0x000
- 342
+ 346 0x0000a514 0x00000000 agen  r0,r0,4
* 346 DA 0x000 0 0x000
+ 347 0x0000a514 0x00000000 ldp  r3,[r0]
* 347 DA 0x000 0 0x000
* 343 DA 0x000 0 0x000
* 344 DA 0x004 0 0x000
+ 348 0x0000a518 0x00000000 cmp  r3,#0 (0 >>> 0)
* 348 IF 0x000 0 0x001
+ 349 0x0000a51c 0x00000000 bne  0xfffffff8
* 349 IF 0x000 0 0x001
<NTsim_num_insn>         189
<NTsim_cycle>         350
<sim_IPC>      0.5400
@ 351
* 319 CT 0x000 0 0x000
- 319
* 325 CT 0x000 0 0x000
- 325
* 326 CT 0x000 0 0x000
- 326
* 323 CT 0x000 0 0x000
- 323
* 339 WB 0x000 0 0x000
* 334 WB 0x000 0 0x000
* 346 EX 0x010 351 0x001
* 345 DA 0x000 0 0x000
- 345
+ 350 0x0000a514 0x00000000 agen  r0,r0,4
* 350 DA 0x000 0 0x000
+ 351 0x0000a514 0x00000000 ldp  r3,[r0]
* 351 DA 0x000 0 0x000
* 348 DA 0x000 0 0x000
* 349 DA 0x000 0 0x000
+ 352 0x0000a514 0x00000000 ldr  r3,[r0,#4]!
* 352 IF 0x000 0 0x001
+ 353 0x0000a518 0x00000000 cmp  r3,#0 (0 >>> 0)
* 353 IF 0x000 0 0x001
+ 354 0x0000a51c 0x00000000 bne  0xfffffff8
* 354 IF 0x000 0 0x001
<NTsim_num_insn>         189
<NTsim_cycle>         351
<sim_IPC>      0.5385
@ 352
* 324 CT 0x000 0 0x000
- 324
* 330 CT 0x000 0 0x000
- 330
* 331 CT 0x000 0 0x000
- 331
* 328 CT 0x000 0 0x000
- 328
* 346 WB 0x000 0 0x000
* 347 EX 0x000 0 0x001
* 350 EX 0x010 1 0x001
* 352 DA 0x000 0 0x000
- 352
+ 355 0x0000a514 0x00000000 agen  r0,r0,4
* 355 DA 0x000 0 0x000
+ 356 0x0000a514 0x00000000 ldp  r3,[r0]
* 356 DA 0x000 0 0x000
* 353 DA 0x000 0 0x000
* 354 DA 0x000 0 0x000
+ 357 0x0000a514 0x00000000 ldr  r3,[r0,#4]!
* 357 IF 0x000 0 0x001
+ 358 0x0000a518 0x00000000 cmp  r3,#0 (0 >>> 0)
* 358 IF 0x000 0 0x001
+ 359 0x0000a51c 0x00000000 bne  0xfffffff8
* 359 IF 0x000 0 0x001
<NTsim_num_insn>         189
<NTsim_cycle>         352
<sim_IPC>      0.5369
@ 353
* 329 CT 0x000 0 0x000
- 329
* 335 CT 0x000 0 0x000
- 335
* 336 CT 0x000 0 0x000
- 336
* 333 CT 0x000 0 0x000
- 333
* 350 WB 0x000 0 0x000
* 347 WB 0x000 0 0x000
* 351 EX 0x000 0 0x001
* 343 EX 0x000 0 0x001
* 355 EX 0x010 1 0x001
* 357 DA 0x000 0 0x000
- 357
+ 360 0x0000a514 0x00000000 agen  r0,r0,4
* 360 DA 0x000 0 0x000
+ 361 0x0000a514 0x00000000 ldp  r3,[r0]
* 361 DA 0x000 0 0x000
* 358 DA 0x000 0 0x000
* 359 DA 0x000 0 0x000
+ 362 0x0000a514 0x00000000 ldr  r3,[r0,#4]!
* 362 IF 0x000 0 0x001
+ 363 0x0000a518 0x00000000 cmp  r3,#0 (0 >>> 0)
* 363 IF 0x000 0 0x001
+ 364 0x0000a51c 0x00000000 bne  0xfffffff8
* 364 IF 0x000 0 0x001
<NTsim_num_insn>         189
<NTsim_cycle>         353
<sim_IPC>      0.5354
@ 354
* 334 CT 0x000 0 0x000
- 334
* 340 CT 0x000 0 0x000
- 340
* 341 CT 0x000 0 0x000
- 341
* 338 CT 0x000 0 0x000
- 338
* 355 WB 0x000 0 0x000
* 343 WB 0x000 0 0x000
* 351 WB 0x000 0 0x000
* 356 EX 0x001 6 0x001
* 344 EX 0x000 0 0x001
* 348 EX 0x000 0 0x001
* 360 EX 0x010 6 0x001
* 362 DA 0x000 0 0x000
- 362
+ 365 0x0000a514 0x00000000 agen  r0,r0,4
* 365 DA 0x000 0 0x000
+ 366 0x0000a514 0x00000000 ldp  r3,[r0]
* 366 DA 0x000 0 0x000
* 363 DA 0x000 0 0x000
* 364 DA 0x000 0 0x000
+ 367 0x0000a514 0x00000000 ldr  r3,[r0,#4]!
* 367 IF 0x000 0 0x001
+ 368 0x0000a518 0x00000000 cmp  r3,#0 (0 >>> 0)
* 368 IF 0x000 0 0x001
+ 369 0x0000a51c 0x00000000 bne  0xfffffff8
* 369 IF 0x000 0 0x001
<NTsim_num_insn>         189
<NTsim_cycle>         354
<sim_IPC>      0.5339
@ 355
* 339 CT 0x000 0 0x000
- 339
* 346 CT 0x000 0 0x000
- 346
* 347 CT 0x000 0 0x000
- 347
* 343 CT 0x000 0 0x000
- 343
* 360 WB 0x000 0 0x000
* 348 WB 0x000 0 0x000
- 364
- 363
- 366
- 365
- 359
- 358
- 361
- 360
- 354
- 353
- 356
- 355
- 349
- 348
- 351
- 350
- 367
- 368
- 369
* 344 WB 0x008 0 0x000
<NTsim_num_insn>         189
<NTsim_cycle>         355
<sim_IPC>      0.5324
@ 356
* 344 CT 0x000 0 0x000
- 344
<NTsim_num_insn>         189
<NTsim_cycle>         356
<sim_IPC>      0.5309
@ 357
<NTsim_num_insn>         189
<NTsim_cycle>         357
<sim_IPC>      0.5294
@ 358
<NTsim_num_insn>         189
<NTsim_cycle>         358
<sim_IPC>      0.5279
@ 359
[...]
* 3246 EX 0x010 1939 0x001
* 3258 DA 0x000 0 0x000
+ 3259 0x00016118 0x00000000 ldr  r3,[r0,#8]!
* 3259 IF 0x000 0 0x001
+ 3260 0x0001611c 0x00000000 cmp  r3,#0 (0 >>> 0)
* 3260 IF 0x000 0 0x001
+ 3261 0x00016120 0x00000000 ldreq  r15,[r13],#4
* 3261 IF 0x000 0 0x001
+ 3262 0x00016124 0x00000000 b  0xffffff78
* 3262 IF 0x000 0 0x001
<NTsim_num_insn>        1716
<NTsim_cycle>        1939
<sim_IPC>      0.8850
@ 1940
* 3238 CT 0x000 0 0x000
- 3238
* 3246 WB 0x000 0 0x000
* 3234 WB 0x000 0 0x000
* 3247 EX 0x000 0 0x001
* 3235 EX 0x000 0 0x001
* 3248 EX 0x000 0 0x001
* 3258 EX 0x000 0 0x001
<NTsim_num_insn>        1716
<NTsim_cycle>        1940
<sim_IPC>      0.8845
@ 1941
* 3234 CT 0x000 0 0x000
- 3234
* 3258 WB 0x000 0 0x000
* 3248 WB 0x000 0 0x000
* 3235 WB 0x000 0 0x000
* 3247 WB 0x000 0 0x000
* 3243 EX 0x000 0 0x001
* 3249 EX 0x000 0 0x001
* 3259 DA 0x000 0 0x000
- 3259
+ 3263 0x00016118 0x00000000 agen  r0,r0,8
* 3263 DA 0x000 0 0x000
<NTsim_num_insn>        1717
<NTsim_cycle>        1941
<sim_IPC>      0.8846
@ 1942
* 3235 CT 0x000 0 0x000
- 3235
* 3239 CT 0x000 0 0x000
- 3239
* 3241 CT 0x000 0 0x000
- 3241
* 3240 CT 0x000 0 0x000
- 3240
* 3249 WB 0x000 0 0x000
* 3243 WB 0x000 0 0x000
* 3254 EX 0x010 1942 0x001
* 3256 EX 0x000 0 0x001
+ 3264 0x00016118 0x00000000 ldp  r3,[r0]
* 3264 DA 0x000 0 0x000
* 3260 DA 0x000 0 0x000
* 3261 DA 0x000 0 0x000
- 3261
+ 3265 0x00016120 0x00000000 ldpeq  r15,[r13]
* 3265 DA 0x000 0 0x000
+ 3266 0x00016120 0x00000000 ageneq  r13,r13,4
* 3266 DA 0x000 0 0x000
* 3262 DA 0x000 0 0x000
+ 3267 0x0001609c 0x00000000 ldr  r3,[r0,#0]
* 3267 IF 0x000 0 0x001
+ 3268 0x000160a0 0x00000000 sub  r3,r3,#3 (3 >>> 0)
* 3268 IF 0x000 0 0x001
+ 3269 0x000160a4 0x00000000 cmp  r3,#14 (14 >>> 0)
* 3269 IF 0x000 0 0x001
+ 3270 0x000160a8 0x00000000 ldrls  r15,[r15, r3, lsl #2]
* 3270 IF 0x000 0 0x001
<NTsim_num_insn>        1720
<NTsim_cycle>        1942
<sim_IPC>      0.8857
@ 1943
* 3246 CT 0x000 0 0x000
- 3246
* 3247 CT 0x000 0 0x000
- 3247
* 3243 CT 0x000 0 0x000
- 3243
* 3248 CT 0x000 0 0x000
- 3248
* 3256 WB 0x000 0 0x000
* 3254 WB 0x000 0 0x000
* 3255 EX 0x000 0 0x001
* 3257 EX 0x000 0 0x001
* 3262 EX 0x000 0 0x001
* 3267 DA 0x000 0 0x000
- 3267
+ 3271 0x0001609c 0x00000000 agen  tmp0,r0,0
* 3271 DA 0x000 0 0x000
+ 3272 0x0001609c 0x00000000 ldp  r3,[tmp0]
* 3272 DA 0x000 0 0x000
* 3268 DA 0x000 0 0x000
* 3269 DA 0x000 0 0x000
+ 3273 0x000160ac 0x00000000 b  0x6c
* 3273 IF 0x000 0 0x001
<NTsim_num_insn>        1723
<NTsim_cycle>        1943
<sim_IPC>      0.8868
@ 1944
* 3249 CT 0x000 0 0x000
- 3249
* 3245 CT 0x000 0 0x000
- 3245
* 3254 CT 0x000 0 0x000
- 3254
* 3262 WB 0x000 0 0x000
* 3257 WB 0x000 0 0x000
* 3255 WB 0x000 0 0x000
* 3251 EX 0x000 0 0x001
* 3263 EX 0x010 1944 0x001
* 3270 DA 0x000 0 0x000
- 3270
+ 3274 0x000160a8 0x00000000 agenls  tmp0,r15,r3, lsl #2
* 3274 DA 0x000 0 0x000
+ 3275 0x000160a8 0x00000000 ldpls  r15,[tmp0]
* 3275 DA 0x000 0 0x000
* 3273 DA 0x000 0 0x000
+ 3276 0x00016118 0x00000000 ldr  r3,[r0,#8]!
* 3276 IF 0x000 0 0x001
+ 3277 0x0001611c 0x00000000 cmp  r3,#0 (0 >>> 0)
* 3277 IF 0x000 0 0x001
+ 3278 0x00016120 0x00000000 ldreq  r15,[r13],#4
* 3278 IF 0x000 0 0x001
+ 3279 0x00016124 0x00000000 b  0xffffff78
* 3279 IF 0x000 0 0x001
<NTsim_num_insn>        1725
<NTsim_cycle>        1944
<sim_IPC>      0.8873
@ 1945
* 3255 CT 0x000 0 0x000
- 3255
* 3263 WB 0x000 0 0x000
* 3251 WB 0x000 0 0x000
* 3264 EX 0x001 6 0x001
* 3252 EX 0x000 0 0x001
* 3265 EX 0x000 0 0x001
* 3273 EX 0x000 0 0x001
<NTsim_num_insn>        1725
<NTsim_cycle>        1945
<sim_IPC>      0.8869
@ 1946
* 3251 CT 0x000 0 0x000
- 3251
* 3273 WB 0x000 0 0x000
* 3265 WB 0x000 0 0x000
* 3252 WB 0x000 0 0x000
* 3266 EX 0x000 0 0x001
* 3276 DA 0x000 0 0x000
- 3276
+ 3280 0x00016118 0x00000000 agen  r0,r0,8
* 3280 DA 0x000 0 0x000
<NTsim_num_insn>        1726
<NTsim_cycle>        1946
<sim_IPC>      0.8869
@ 1947
* 3252 CT 0x000 0 0x000
- 3252
* 3256 CT 0x000 0 0x000
- 3256
* 3257 CT 0x000 0 0x000
- 3257
* 3258 CT 0x000 0 0x000
- 3258
* 3266 WB 0x000 0 0x000
* 3271 EX 0x010 1947 0x001
* 3274 EX 0x000 0 0x001
+ 3281 0x00016118 0x00000000 ldp  r3,[r0]
* 3281 DA 0x000 0 0x000
* 3277 DA 0x000 0 0x000
* 3278 DA 0x000 0 0x000
- 3278
+ 3282 0x00016120 0x00000000 ldpeq  r15,[r13]
* 3282 DA 0x000 0 0x000
+ 3283 0x00016120 0x00000000 ageneq  r13,r13,4
* 3283 DA 0x000 0 0x000
* 3279 DA 0x000 0 0x000
+ 3284 0x0001609c 0x00000000 ldr  r3,[r0,#0]
* 3284 IF 0x000 0 0x001
+ 3285 0x000160a0 0x00000000 sub  r3,r3,#3 (3 >>> 0)
* 3285 IF 0x000 0 0x001
+ 3286 0x000160a4 0x00000000 cmp  r3,#14 (14 >>> 0)
* 3286 IF 0x000 0 0x001
+ 3287 0x000160a8 0x00000000 ldrls  r15,[r15, r3, lsl #2]
* 3287 IF 0x000 0 0x001
<NTsim_num_insn>        1729
<NTsim_cycle>        1947
<sim_IPC>      0.8880
@ 1948
* 3263 CT 0x000 0 0x000
- 3263
* 3274 WB 0x000 0 0x000
* 3271 WB 0x000 0 0x000
* 3272 EX 0x001 3 0x001
* 3275 EX 0x000 0 0x001
* 3279 EX 0x000 0 0x001
* 3284 DA 0x000 0 0x000
- 3284
+ 3288 0x0001609c 0x00000000 agen  tmp0,r0,0
* 3288 DA 0x000 0 0x000
<NTsim_num_insn>        1730
<NTsim_cycle>        1948
<sim_IPC>      0.8881
@ 1949
* 3279 WB 0x000 0 0x000
* 3275 WB 0x000 0 0x000
* 3280 EX 0x010 1949 0x001
<NTsim_num_insn>        1730
<NTsim_cycle>        1949
<sim_IPC>      0.8876
@ 1950
* 3280 WB 0x000 0 0x000
* 3281 EX 0x000 0 0x001
* 3282 EX 0x000 0 0x001
<NTsim_num_insn>        1730
<NTsim_cycle>        1950
<sim_IPC>      0.8872
@ 1951
* 3282 WB 0x000 0 0x000
* 3281 WB 0x000 0 0x000
* 3272 WB 0x000 0 0x000
* 3264 WB 0x000 0 0x000
* 3260 EX 0x000 0 0x001
* 3268 EX 0x000 0 0x001
* 3277 EX 0x000 0 0x001
* 3283 EX 0x000 0 0x001
<NTsim_num_insn>        1730
<NTsim_cycle>        1951
<sim_IPC>      0.8867
@ 1952
* 3264 CT 0x000 0 0x000
- 3264
* 3283 WB 0x000 0 0x000
* 3277 WB 0x000 0 0x000
* 3268 WB 0x000 0 0x000
* 3260 WB 0x000 0 0x000
* 3269 EX 0x000 0 0x001
* 3288 EX 0x010 1952 0x001
<NTsim_num_insn>        1730
<NTsim_cycle>        1952
<sim_IPC>      0.8863
@ 1953
* 3260 CT 0x000 0 0x000
- 3260
* 3265 CT 0x000 0 0x000
- 3265
* 3266 CT 0x000 0 0x000
- 3266
* 3262 CT 0x000 0 0x000
- 3262
* 3288 WB 0x000 0 0x000
* 3269 WB 0x000 0 0x000
+ 3289 0x0001609c 0x00000000 ldp  r3,[tmp0]
* 3289 DA 0x000 0 0x000
* 3285 DA 0x000 0 0x000
* 3286 DA 0x000 0 0x000
* 3287 DA 0x000 0 0x000
- 3287
+ 3290 0x000160a8 0x00000000 agenls  tmp0,r15,r3, lsl #2
* 3290 DA 0x000 0 0x000
+ 3291 0x000160a8 0x00000000 ldpls  r15,[tmp0]
* 3291 DA 0x000 0 0x000
+ 3292 0x000160ac 0x00000000 b  0x6c
* 3292 IF 0x000 0 0x001
<NTsim_num_insn>        1733
<NTsim_cycle>        1953
<sim_IPC>      0.8874
@ 1954
* 3271 CT 0x000 0 0x000
- 3271
* 3272 CT 0x000 0 0x000
- 3272
* 3268 CT 0x000 0 0x000
- 3268
* 3269 CT 0x000 0 0x000
- 3269
* 3289 EX 0x000 0 0x001
* 3290 EX 0x000 0 0x001
* 3292 DA 0x000 0 0x000
+ 3293 0x00016118 0x00000000 ldr  r3,[r0,#8]!
* 3293 IF 0x000 0 0x001
+ 3294 0x0001611c 0x00000000 cmp  r3,#0 (0 >>> 0)
* 3294 IF 0x000 0 0x001
+ 3295 0x00016120 0x00000000 ldreq  r15,[r13],#4
* 3295 IF 0x000 0 0x001
+ 3296 0x00016124 0x00000000 b  0xffffff78
* 3296 IF 0x000 0 0x001
<NTsim_num_insn>        1734
<NTsim_cycle>        1954
<sim_IPC>      0.8874
@ 1955
* 3274 CT 0x000 0 0x000
- 3274
* 3275 CT 0x000 0 0x000
- 3275
* 3273 CT 0x000 0 0x000
- 3273
* 3280 CT 0x000 0 0x000
- 3280
* 3290 WB 0x000 0 0x000
* 3289 WB 0x000 0 0x000
* 3285 EX 0x000 0 0x001
* 3291 EX 0x000 0 0x001
* 3292 EX 0x000 0 0x001
* 3293 DA 0x000 0 0x000
- 3293
+ 3297 0x00016118 0x00000000 agen  r0,r0,8
* 3297 DA 0x000 0 0x000
+ 3298 0x00016118 0x00000000 ldp  r3,[r0]
* 3298 DA 0x000 0 0x000
* 3294 DA 0x000 0 0x000
* 3295 DA 0x000 0 0x000
- 3295
+ 3299 0x00016120 0x00000000 ldpeq  r15,[r13]
* 3299 DA 0x000 0 0x000
+ 3300 0x00016120 0x00000000 ageneq  r13,r13,4
* 3300 DA 0x000 0 0x000
* 3296 DA 0x000 0 0x000
+ 3301 0x0001609c 0x00000000 ldr  r3,[r0,#0]
* 3301 IF 0x000 0 0x001
+ 3302 0x000160a0 0x00000000 sub  r3,r3,#3 (3 >>> 0)
* 3302 IF 0x000 0 0x001
+ 3303 0x000160a4 0x00000000 cmp  r3,#14 (14 >>> 0)
* 3303 IF 0x000 0 0x001
+ 3304 0x000160a8 0x00000000 ldrls  r15,[r15, r3, lsl #2]
* 3304 IF 0x000 0 0x001
<NTsim_num_insn>        1738
<NTsim_cycle>        1955
<sim_IPC>      0.8890
@ 1956
* 3281 CT 0x000 0 0x000
- 3281
* 3277 CT 0x000 0 0x000
- 3277
* 3282 CT 0x000 0 0x000
- 3282
* 3283 CT 0x000 0 0x000
- 3283
* 3292 WB 0x000 0 0x000
* 3291 WB 0x000 0 0x000
* 3285 WB 0x000 0 0x000
* 3286 EX 0x000 0 0x001
* 3297 EX 0x010 1956 0x001
* 3296 EX 0x000 0 0x001
* 3301 DA 0x000 0 0x000
- 3301
+ 3305 0x0001609c 0x00000000 agen  tmp0,r0,0
* 3305 DA 0x000 0 0x000
+ 3306 0x0001609c 0x00000000 ldp  r3,[tmp0]
* 3306 DA 0x000 0 0x000
* 3302 DA 0x000 0 0x000
* 3303 DA 0x000 0 0x000
* 3304 DA 0x000 0 0x000
- 3304
+ 3307 0x000160a8 0x00000000 agenls  tmp0,r15,r3, lsl #2
* 3307 DA 0x000 0 0x000
+ 3308 0x000160ac 0x00000000 b  0x6c
* 3308 IF 0x000 0 0x001
<NTsim_num_insn>        1742
<NTsim_cycle>        1956
<sim_IPC>      0.8906
@ 1957
* 3279 CT 0x000 0 0x000
- 3279
* 3288 CT 0x000 0 0x000
- 3288
* 3289 CT 0x000 0 0x000
- 3289
* 3285 CT 0x000 0 0x000
- 3285
* 3296 WB 0x000 0 0x000
* 3297 WB 0x000 0 0x000
* 3286 WB 0x000 0 0x000
* 3298 EX 0x000 0 0x001
* 3299 EX 0x000 0 0x001
+ 3309 0x000160a8 0x00000000 ldpls  r15,[tmp0]
* 3309 DA 0x000 0 0x000
* 3308 DA 0x000 0 0x000
+ 3310 0x00016118 0x00000000 ldr  r3,[r0,#8]!
* 3310 IF 0x000 0 0x001
+ 3311 0x0001611c 0x00000000 cmp  r3,#0 (0 >>> 0)
* 3311 IF 0x000 0 0x001
+ 3312 0x00016120 0x00000000 ldreq  r15,[r13],#4
* 3312 IF 0x000 0 0x001
+ 3313 0x00016124 0x00000000 b  0xffffff78
* 3313 IF 0x000 0 0x001
<NTsim_num_insn>        1743
<NTsim_cycle>        1957
<sim_IPC>      0.8906
@ 1958
* 3286 CT 0x000 0 0x000
- 3286
* 3290 CT 0x000 0 0x000
- 3290
* 3291 CT 0x000 0 0x000
- 3291
* 3292 CT 0x000 0 0x000
- 3292
* 3299 WB 0x000 0 0x000
* 3298 WB 0x000 0 0x000
* 3294 EX 0x000 0 0x001
* 3300 EX 0x000 0 0x001
* 3308 EX 0x000 0 0x001
* 3310 DA 0x000 0 0x000
- 3310
+ 3314 0x00016118 0x00000000 agen  r0,r0,8
* 3314 DA 0x000 0 0x000
+ 3315 0x00016118 0x00000000 ldp  r3,[r0]
* 3315 DA 0x000 0 0x000
* 3311 DA 0x000 0 0x000
* 3312 DA 0x000 0 0x000
- 3312
+ 3316 0x00016120 0x00000000 ldpeq  r15,[r13]
* 3316 DA 0x000 0 0x000
+ 3317 0x00016120 0x00000000 ageneq  r13,r13,4
* 3317 DA 0x000 0 0x000
* 3313 DA 0x000 0 0x000
+ 3318 0x0001609c 0x00000000 ldr  r3,[r0,#0]
* 3318 IF 0x000 0 0x001
+ 3319 0x000160a0 0x00000000 sub  r3,r3,#3 (3 >>> 0)
* 3319 IF 0x000 0 0x001
+ 3320 0x000160a4 0x00000000 cmp  r3,#14 (14 >>> 0)
* 3320 IF 0x000 0 0x001
+ 3321 0x000160a8 0x00000000 ldrls  r15,[r15, r3, lsl #2]
* 3321 IF 0x000 0 0x001
<NTsim_num_insn>        1747
<NTsim_cycle>        1958
<sim_IPC>      0.8922
@ 1959
* 3297 CT 0x000 0 0x000
- 3297
* 3298 CT 0x000 0 0x000
- 3298
* 3308 WB 0x000 0 0x000
* 3300 WB 0x000 0 0x000
* 3294 WB 0x000 0 0x000
* 3305 EX 0x010 1959 0x001
* 3307 EX 0x000 0 0x001
* 3313 EX 0x000 0 0x001
* 3318 DA 0x000 0 0x000
- 3318
+ 3322 0x0001609c 0x00000000 agen  tmp0,r0,0
* 3322 DA 0x000 0 0x000
<NTsim_num_insn>        1748
<NTsim_cycle>        1959
<sim_IPC>      0.8923
@ 1960
* 3294 CT 0x000 0 0x000
- 3294
* 3299 CT 0x000 0 0x000
- 3299
* 3300 CT 0x000 0 0x000
- 3300
* 3296 CT 0x000 0 0x000
- 3296
* 3313 WB 0x000 0 0x000
* 3307 WB 0x000 0 0x000
* 3305 WB 0x000 0 0x000
* 3306 EX 0x000 0 0x001
* 3309 EX 0x000 0 0x001
+ 3323 0x0001609c 0x00000000 ldp  r3,[tmp0]
* 3323 DA 0x000 0 0x000
* 3319 DA 0x000 0 0x000
* 3320 DA 0x000 0 0x000
* 3321 DA 0x000 0 0x000
- 3321
+ 3324 0x000160a8 0x00000000 agenls  tmp0,r15,r3, lsl #2
* 3324 DA 0x000 0 0x000
+ 3325 0x000160a8 0x00000000 ldpls  r15,[tmp0]
* 3325 DA 0x000 0 0x000
+ 3326 0x000160ac 0x00000000 b  0x6c
* 3326 IF 0x000 0 0x001
<NTsim_num_insn>        1751
<NTsim_cycle>        1960
<sim_IPC>      0.8934
@ 1961
* 3305 CT 0x000 0 0x000
- 3305
* 3309 WB 0x000 0 0x000
* 3306 WB 0x000 0 0x000
* 3302 EX 0x000 0 0x001
* 3314 EX 0x010 1961 0x001
* 3326 DA 0x000 0 0x000
+ 3327 0x00016118 0x00000000 ldr  r3,[r0,#8]!
* 3327 IF 0x000 0 0x001
+ 3328 0x0001611c 0x00000000 cmp  r3,#0 (0 >>> 0)
* 3328 IF 0x000 0 0x001
+ 3329 0x00016120 0x00000000 ldreq  r15,[r13],#4
* 3329 IF 0x000 0 0x001
+ 3330 0x00016124 0x00000000 b  0xffffff78
* 3330 IF 0x000 0 0x001
<NTsim_num_insn>        1752
<NTsim_cycle>        1961
<sim_IPC>      0.8934
@ 1962
* 3306 CT 0x000 0 0x000
- 3306
* 3314 WB 0x000 0 0x000
* 3302 WB 0x000 0 0x000
* 3315 EX 0x000 0 0x001
* 3303 EX 0x000 0 0x001
* 3316 EX 0x000 0 0x001
* 3326 EX 0x000 0 0x001
<NTsim_num_insn>        1752
<NTsim_cycle>        1962
<sim_IPC>      0.8930
@ 1963
* 3302 CT 0x000 0 0x000
- 3302
* 3326 WB 0x000 0 0x000
* 3316 WB 0x000 0 0x000
* 3303 WB 0x000 0 0x000
* 3315 WB 0x000 0 0x000
* 3311 EX 0x000 0 0x001
* 3317 EX 0x000 0 0x001
* 3327 DA 0x000 0 0x000
- 3327
+ 3331 0x00016118 0x00000000 agen  r0,r0,8
* 3331 DA 0x000 0 0x000
<NTsim_num_insn>        1753
<NTsim_cycle>        1963
<sim_IPC>      0.8930
@ 1964
* 3303 CT 0x000 0 0x000
- 3303
* 3307 CT 0x000 0 0x000
- 3307
* 3309 CT 0x000 0 0x000
- 3309
* 3308 CT 0x000 0 0x000
- 3308
* 3317 WB 0x000 0 0x000
* 3311 WB 0x000 0 0x000
* 3322 EX 0x010 1964 0x001
* 3324 EX 0x000 0 0x001
+ 3332 0x00016118 0x00000000 ldp  r3,[r0]
* 3332 DA 0x000 0 0x000
* 3328 DA 0x000 0 0x000
* 3329 DA 0x000 0 0x000
- 3329
+ 3333 0x00016120 0x00000000 ldpeq  r15,[r13]
* 3333 DA 0x000 0 0x000
+ 3334 0x00016120 0x00000000 ageneq  r13,r13,4
* 3334 DA 0x000 0 0x000
* 3330 DA 0x000 0 0x000
+ 3335 0x0001609c 0x00000000 ldr  r3,[r0,#0]
* 3335 IF 0x000 0 0x001
+ 3336 0x000160a0 0x00000000 sub  r3,r3,#3 (3 >>> 0)
* 3336 IF 0x000 0 0x001
+ 3337 0x000160a4 0x00000000 cmp  r3,#14 (14 >>> 0)
* 3337 IF 0x000 0 0x001
+ 3338 0x000160a8 0x00000000 ldrls  r15,[r15, r3, lsl #2]
* 3338 IF 0x000 0 0x001
<NTsim_num_insn>        1756
<NTsim_cycle>        1964
<sim_IPC>      0.8941
@ 1965
* 3314 CT 0x000 0 0x000
- 3314
* 3315 CT 0x000 0 0x000
- 3315
* 3311 CT 0x000 0 0x000
- 3311
* 3316 CT 0x000 0 0x000
- 3316
* 3324 WB 0x000 0 0x000
* 3322 WB 0x000 0 0x000
* 3323 EX 0x000 0 0x001
* 3325 EX 0x000 0 0x001
* 3330 EX 0x000 0 0x001
* 3335 DA 0x000 0 0x000
- 3335
+ 3339 0x0001609c 0x00000000 agen  tmp0,r0,0
* 3339 DA 0x000 0 0x000
+ 3340 0x0001609c 0x00000000 ldp  r3,[tmp0]
* 3340 DA 0x000 0 0x000
* 3336 DA 0x000 0 0x000
* 3337 DA 0x000 0 0x000
+ 3341 0x000160ac 0x00000000 b  0x6c
* 3341 IF 0x000 0 0x001
<NTsim_num_insn>        1759
<NTsim_cycle>        1965
<sim_IPC>      0.8952
@ 1966
* 3317 CT 0x000 0 0x000
- 3317
* 3313 CT 0x000 0 0x000
- 3313
* 3322 CT 0x000 0 0x000
- 3322
* 3330 WB 0x000 0 0x000
* 3325 WB 0x000 0 0x000
* 3323 WB 0x000 0 0x000
* 3319 EX 0x000 0 0x001
* 3331 EX 0x010 1966 0x001
* 3338 DA 0x000 0 0x000
- 3338
+ 3342 0x000160a8 0x00000000 agenls  tmp0,r15,r3, lsl #2
* 3342 DA 0x000 0 0x000
+ 3343 0x000160a8 0x00000000 ldpls  r15,[tmp0]
* 3343 DA 0x000 0 0x000
* 3341 DA 0x000 0 0x000
+ 3344 0x00016118 0x00000000 ldr  r3,[r0,#8]!
* 3344 IF 0x000 0 0x001
+ 3345 0x0001611c 0x00000000 cmp  r3,#0 (0 >>> 0)
* 3345 IF 0x000 0 0x001
+ 3346 0x00016120 0x00000000 ldreq  r15,[r13],#4
* 3346 IF 0x000 0 0x001
+ 3347 0x00016124 0x00000000 b  0xffffff78
* 3347 IF 0x000 0 0x001
<NTsim_num_insn>        1761
<NTsim_cycle>        1966
<sim_IPC>      0.8957
@ 1967
* 3323 CT 0x000 0 0x000
- 3323
* 3331 WB 0x000 0 0x000
* 3319 WB 0x000 0 0x000
* 3332 EX 0x001 32 0x001
* 3320 EX 0x000 0 0x001
* 3333 EX 0x000 0 0x001
* 3341 EX 0x000 0 0x001
<NTsim_num_insn>        1761
<NTsim_cycle>        1967
<sim_IPC>      0.8953
@ 1968
* 3319 CT 0x000 0 0x000
- 3319
* 3341 WB 0x000 0 0x000
* 3333 WB 0x000 0 0x000
* 3320 WB 0x000 0 0x000
* 3334 EX 0x000 0 0x001
* 3344 DA 0x000 0 0x000
- 3344
+ 3348 0x00016118 0x00000000 agen  r0,r0,8
* 3348 DA 0x000 0 0x000
<NTsim_num_insn>        1762
<NTsim_cycle>        1968
<sim_IPC>      0.8953
@ 1969
* 3320 CT 0x000 0 0x000
- 3320
* 3324 CT 0x000 0 0x000
- 3324
* 3325 CT 0x000 0 0x000
- 3325
* 3326 CT 0x000 0 0x000
- 3326
* 3334 WB 0x000 0 0x000
* 3339 EX 0x010 1969 0x001
* 3342 EX 0x000 0 0x001
+ 3349 0x00016118 0x00000000 ldp  r3,[r0]
* 3349 DA 0x000 0 0x000
* 3345 DA 0x000 0 0x000
* 3346 DA 0x000 0 0x000
- 3346
+ 3350 0x00016120 0x00000000 ldpeq  r15,[r13]
* 3350 DA 0x000 0 0x000
+ 3351 0x00016120 0x00000000 ageneq  r13,r13,4
* 3351 DA 0x000 0 0x000
* 3347 DA 0x000 0 0x000
+ 3352 0x0001609c 0x00000000 ldr  r3,[r0,#0]
* 3352 IF 0x000 0 0x001
+ 3353 0x000160a0 0x00000000 sub  r3,r3,#3 (3 >>> 0)
* 3353 IF 0x000 0 0x001
+ 3354 0x000160a4 0x00000000 cmp  r3,#14 (14 >>> 0)
* 3354 IF 0x000 0 0x001
+ 3355 0x000160a8 0x00000000 ldrls  r15,[r15, r3, lsl #2]
* 3355 IF 0x000 0 0x001
<NTsim_num_insn>        1765
<NTsim_cycle>        1969
<sim_IPC>      0.8964
@ 1970
* 3331 CT 0x000 0 0x000
- 3331
* 3342 WB 0x000 0 0x000
* 3339 WB 0x000 0 0x000
* 3340 EX 0x001 29 0x001
* 3343 EX 0x000 0 0x001
* 3347 EX 0x000 0 0x001
* 3352 DA 0x000 0 0x000
- 3352
+ 3356 0x0001609c 0x00000000 agen  tmp0,r0,0
* 3356 DA 0x000 0 0x000
<NTsim_num_insn>        1766
<NTsim_cycle>        1970
<sim_IPC>      0.8964
@ 1971
* 3347 WB 0x000 0 0x000
* 3343 WB 0x000 0 0x000
* 3348 EX 0x010 1971 0x001
<NTsim_num_insn>        1766
<NTsim_cycle>        1971
<sim_IPC>      0.8960
@ 1972
* 3348 WB 0x000 0 0x000
* 3349 EX 0x001 27 0x001
* 3350 EX 0x000 0 0x001
<NTsim_num_insn>        1766
<NTsim_cycle>        1972
<sim_IPC>      0.8955
@ 1973
* 3350 WB 0x000 0 0x000
* 3351 EX 0x000 0 0x001
<NTsim_num_insn>        1766
<NTsim_cycle>        1973
<sim_IPC>      0.8951
@ 1974
* 3351 WB 0x000 0 0x000
* 3356 EX 0x010 1974 0x001
<NTsim_num_insn>        1766
<NTsim_cycle>        1974
<sim_IPC>      0.8946
@ 1975
* 3356 WB 0x000 0 0x000
<NTsim_num_insn>        1766
<NTsim_cycle>        1975
<sim_IPC>      0.8942
@ 1976
<NTsim_num_insn>        1766
<NTsim_cycle>        1976
<sim_IPC>      0.8937
@ 1977
<NTsim_num_insn>        1766
<NTsim_cycle>        1977
<sim_IPC>      0.8933
@ 1978
<NTsim_num_insn>        1766
<NTsim_cycle>        1978
<sim_IPC>      0.8928
@ 1979
<NTsim_num_insn>        1766
<NTsim_cycle>        1979
<sim_IPC>      0.8924
@ 1980
<NTsim_num_insn>        1766
<NTsim_cycle>        1980
<sim_IPC>      0.8919
@ 1981
<NTsim_num_insn>        1766
<NTsim_cycle>        1981
<sim_IPC>      0.8915
@ 1982
<NTsim_num_insn>        1766
<NTsim_cycle>        1982
<sim_IPC>      0.8910
@ 1983
<NTsim_num_insn>        1766
<NTsim_cycle>        1983
<sim_IPC>      0.8906
@ 1984
<NTsim_num_insn>        1766
<NTsim_cycle>        1984
<sim_IPC>      0.8901
@ 1985
<NTsim_num_insn>        1766
<NTsim_cycle>        1985
<sim_IPC>      0.8897
@ 1986
<NTsim_num_insn>        1766
<NTsim_cycle>        1986
<sim_IPC>      0.8892
@ 1987
<NTsim_num_insn>        1766
<NTsim_cycle>        1987
<sim_IPC>      0.8888
@ 1988
<NTsim_num_insn>        1766
<NTsim_cycle>        1988
<sim_IPC>      0.8883
@ 1989
<NTsim_num_insn>        1766
<NTsim_cycle>        1989
<sim_IPC>      0.8879
@ 1990
<NTsim_num_insn>        1766
<NTsim_cycle>        1990
<sim_IPC>      0.8874
@ 1991
<NTsim_num_insn>        1766
<NTsim_cycle>        1991
<sim_IPC>      0.8870
@ 1992
<NTsim_num_insn>        1766
<NTsim_cycle>        1992
<sim_IPC>      0.8865
@ 1993
<NTsim_num_insn>        1766
<NTsim_cycle>        1993
<sim_IPC>      0.8861
@ 1994
<NTsim_num_insn>        1766
<NTsim_cycle>        1994
<sim_IPC>      0.8857
@ 1995
<NTsim_num_insn>        1766
<NTsim_cycle>        1995
<sim_IPC>      0.8852
@ 1996
<NTsim_num_insn>        1766
<NTsim_cycle>        1996
<sim_IPC>      0.8848
@ 1997
<NTsim_num_insn>        1766
<NTsim_cycle>        1997
<sim_IPC>      0.8843
@ 1998
<NTsim_num_insn>        1766
<NTsim_cycle>        1998
<sim_IPC>      0.8839
@ 1999
* 3349 WB 0x000 0 0x000
* 3340 WB 0x000 0 0x000
* 3332 WB 0x000 0 0x000
* 3328 EX 0x000 0 0x001
* 3336 EX 0x000 0 0x001
* 3345 EX 0x000 0 0x001
<NTsim_num_insn>        1766
<NTsim_cycle>        1999
<sim_IPC>      0.8834
@ 2000
* 3332 CT 0x000 0 0x000
- 3332
* 3345 WB 0x000 0 0x000
* 3336 WB 0x000 0 0x000
* 3328 WB 0x000 0 0x000
* 3337 EX 0x000 0 0x001
<NTsim_num_insn>        1766
<NTsim_cycle>        2000
<sim_IPC>      0.8830
<END VISUAL>
