#!/bin/bash -f

sim-outorder -config sa1core.cfg heisman
./parse_Stats