sim-outorder -config sa1core.cfg blocking
