sim-outorder: SimpleScalar/ARM Tool Set version 3.0 of November, 2000.
Copyright (c) 1994-2000 by Todd M. Austin.  All Rights Reserved.
This version of SimpleScalar is licensed for academic non-commercial use only.

sim: command line: sim-outorder -config sa1core.cfg /afs/nd.edu/coursefa.12/cse/cse30321.01/Labs/mibench/mad/madplay.arm /afs/nd.edu/coursefa.12/cse/cse30321.01/Labs/mibench/mad/victory_march.mp3 -o ./victory_march_sa1.wav 

sim: simulation started @ Sat Sep  1 15:09:36 2012, options follow:

sim-outorder: This simulator implements a very detailed out-of-order issue
superscalar processor with a two-level memory system and speculative
execution support.  This simulator is a performance simulator, tracking the
latency of all pipeline operations.

# -config                     # load configuration from a file
# -dumpconfig                 # dump configuration to a file
# -h                    false # print help message    
# -v                    false # verbose operation     
# -d                    false # enable debug message  
# -i                    false # start in Dlite debugger
-seed                       1 # random number generator seed (0 for timer seed)
# -q                    false # initialize and terminate immediately
# -chkpt               <null> # restore EIO trace execution from <fname>
# -redir:sim      sa1core.txt # redirect simulator output to file (non-interactive only)
# -redir:prog          <null> # redirect simulated program output to file
-nice                       0 # simulator scheduling priority
-max:inst                   0 # maximum number of inst's to execute
# -ptracepipe               0 # The pipe for the ptrace communications
-profile                false # look for areas with significant IPCs
-fastfwd                    0 # number of insts skipped before timing starts
# -ptrace              <null> # generate pipetrace, i.e., <fname|stdout|stderr> <range>
-fetch:ifqsize              8 # instruction fetch queue size (in insts)
-fetch:mplat             9999 # extra branch mis-prediction latency
-fetch:speed                1 # speed of front-end of machine relative to execution core
-bpred               nottaken # branch predictor type {nottaken|taken|perfect|bimod|2lev|comb}
-bpred:bimod     2048 # bimodal predictor config (<table size>)
-bpred:2lev      1 1024 8 0 # 2-level predictor config (<l1size> <l2size> <hist_size> <xor>)
-bpred:comb      1024 # combining predictor config (<meta_table_size>)
-bpred:ras                  8 # return address stack size (0 for no return stack)
-bpred:btb       512 4 # BTB config (<num_sets> <associativity>)
# -bpred:spec_update       <null> # speculative predictors update in {ID|WB} (default non-spec)
-decode:width               1 # instruction decode B/W (insts/cycle)
-issue:width                2 # instruction issue B/W (insts/cycle)
-issue:inorder           true # run pipeline with in-order issue
-issue:wrongpath         true # issue instructions down wrong execution paths
-commit:width               2 # instruction commit B/W (insts/cycle)
-ruu:size                   4 # register update unit (RUU) size
-lsq:size                   4 # load/store queue (LSQ) size
-lsq:perfect            false # perfect memory disambiguation
-cache:dl1       dl1:16:32:32:f # l1 data cache config, i.e., {<config>|none}
-cache:dl1lat               1 # l1 data cache hit latency (in cycles)
-cache:dl2               none # l2 data cache config, i.e., {<config>|none}
-cache:dl2lat               6 # l2 data cache hit latency (in cycles)
-cache:il1       il1:16:32:32:f # l1 inst cache config, i.e., {<config>|dl1|dl2|none}
-cache:il1lat               1 # l1 instruction cache hit latency (in cycles)
-cache:il2               none # l2 instruction cache config, i.e., {<config>|dl2|none}
-cache:il2lat               6 # l2 instruction cache hit latency (in cycles)
-cache:flush            false # flush caches on system calls
-cache:icompress        false # convert 64-bit inst addresses to 32-bit inst equivalents
-mem:lat         64 1 # memory access latency (<first_chunk> <iMPEG Audio Decoder 0.13.0 (beta) - Copyright (C) 2000-2001 Robert Leslie
ID3: version 2.3.0, flags 0x00, size 577 bytes
 Track number/Position in set: 
 Encoded by: 
ID3: unhandled WXXX (User defined URL link frame): flags 0x0000, 2 bytes
 Copyright message: 
 Original artist(s)/performer(s): 
 Composer: John & Michael Shea; arr. Ken Dye
 Comments: 
 Content type: 
 Year: 2001
 Album/Movie/Show title: Stand Beside Her
 Lead performer(s)/Soloist(s): Notre Dame Band
 Title/Songname/Content description: Victory March
error: frame 3360: lost synchronization
3360 frames decoded (0:01:27.7), +0.3 dB peak amplitude, 102 clipped samples
nter_chunk>)
-mem:width                  4 # memory access bus width (in bytes)
-mem:pipelined          false # memory accesses are fully pipelined
-tlb:itlb        itlb:32:4096:32:f # instruction TLB config, i.e., {<config>|none}
-tlb:dtlb        dtlb:32:4096:32:f # data TLB config, i.e., {<config>|none}
-tlb:lat                   30 # inst/data TLB miss latency (in cycles)
-res:ialu                   1 # total number of integer ALU's available
-res:imult                  1 # total number of integer multiplier/dividers available
-res:memport                1 # total number of memory system ports available (to CPU)
-res:fpalu                  1 # total number of floating point ALU's available
-res:fpmult                 1 # total number of floating point multiplier/dividers available
# -pcstat              <null> # profile stat(s) against text addr's (mult uses ok)
-bugcompat              false # operate in backward-compatible bugs mode (for testing only)

  Pipetrace range arguments are formatted as follows:

    {{@|#}<start>}:{{@|#|+}<end>}

  Both ends of the range are optional, if neither are specified, the entire
  execution is traced.  Ranges that start with a `@' designate an address
  range to be traced, those that start with an `#' designate a cycle count
  range.  All other range values represent an instruction count range.  The
  second argument, if specified with a `+', indicates a value relative
  to the first argument, e.g., 1000:+100 == 1000:1100.  Program symbols may
  be used in all contexts.

    Examples:   -ptrace FOO.trc #0:#1000
                -ptrace BAR.trc @2000:
                -ptrace BLAH.trc :1500
                -ptrace UXXE.trc :
                -ptrace FOOBAR.trc @main:+278

  Branch predictor configuration examples for 2-level predictor:
    Configurations:   N, M, W, X
      N   # entries in first level (# of shift register(s))
      W   width of shift register(s)
      M   # entries in 2nd level (# of counters, or other FSM)
      X   (yes-1/no-0) xor history and address for 2nd level index
    Sample predictors:
      GAg     : 1, W, 2^W, 0
      GAp     : 1, W, M (M > 2^W), 0
      PAg     : N, W, 2^W, 0
      PAp     : N, W, M (M == 2^(N+W)), 0
      gshare  : 1, W, 2^W, 1
  Predictor `comb' combines a bimodal and a 2-level predictor.

  The cache config parameter <config> has the following format:

    <name>:<nsets>:<bsize>:<assoc>:<repl>

    <name>   - name of the cache being defined
    <nsets>  - number of sets in the cache
    <bsize>  - block size of the cache
    <assoc>  - associativity of the cache
    <repl>   - block replacement strategy, 'l'-LRU, 'f'-FIFO, 'r'-random

    Examples:   -cache:dl1 dl1:4096:32:1:l
                -dtlb dtlb:128:4096:32:r

  Cache levels can be unified by pointing a level of the instruction cache
  hierarchy at the data cache hiearchy using the "dl1" and "dl2" cache
  configuration arguments.  Most sensible combinations are supported, e.g.,

    A unified l2 cache (il2 is pointed at dl2):
      -cache:il1 il1:128:64:1:l -cache:il2 dl2
      -cache:dl1 dl1:256:32:1:l -cache:dl2 ul2:1024:64:2:l

    Or, a fully unified cache hierarchy (il1 pointed at dl1):
      -cache:il1 dl1
      -cache:dl1 ul1:256:32:1:l -cache:dl2 ul2:1024:64:2:l



sim: ** starting performance simulation **
warning: invalid/unimplemented syscall 140, PC=0x0203018c, winging it
warning: invalid/unimplemented syscall 140, PC=0x0203018c, winging it
warning: invalid/unimplemented syscall 91, PC=0x02030140, winging it

sim: ** simulation statistics **
sim_num_insn             1784099038 # total number of instructions committed
sim_num_uops             2659175313 # total number of UOPs executed
sim_avg_flowlen              1.4905 # uops per instruction
sim_num_refs              682171999 # total number of loads and stores committed
sim_num_loads             505097460 # total number of loads committed
sim_num_stores         177074539.0000 # total number of stores committed
sim_num_branches           87446102 # total number of branches committed
sim_elapsed_time               2226 # total simulation time in seconds
sim_inst_rate           801482.0476 # simulation speed (in insts/sec)
sim_total_insn           2581575672 # total number of instructions executed
sim_total_refs            682191046 # total number of loads and stores executed
sim_total_loads           505116506 # total number of loads executed
sim_total_stores       177074540.0000 # total number of stores executed
sim_total_branches         89896466 # total number of branches executed
sim_cycle                2827517909 # total simulation time in cycles
sim_IPC                      0.6310 # instructions per cycle
sim_CPI                      1.5848 # cycles per instruction
sim_exec_BW                  0.9130 # total instructions (mis-spec + committed) per cycle
sim_IPB                     20.4023 # instruction per branch
IFQ_count               15412269974 # cumulative IFQ occupancy
IFQ_fcount               1278535036 # cumulative IFQ full count
ifq_occupancy                5.4508 # avg IFQ occupancy (insn's)
ifq_rate                     0.9130 # avg IFQ dispatch rate (insn/cycle)
ifq_latency                  5.9701 # avg IFQ occupant latency (cycle's)
ifq_full                     0.4522 # fraction of time (cycle's) IFQ was full
RUU_count                7194884835 # cumulative RUU occupancy
RUU_fcount                360592429 # cumulative RUU full count
ruu_occupancy                2.5446 # avg RUU occupancy (insn's)
ruu_rate                     0.9130 # avg RUU dispatch rate (insn/cycle)
ruu_latency                  2.7870 # avg RUU occupant latency (cycle's)
ruu_full                     0.1275 # fraction of time (cycle's) RUU was full
LSQ_count                2772769028 # cumulative LSQ occupancy
LSQ_fcount                 15806618 # cumulative LSQ full count
lsq_occupancy                0.9806 # avg LSQ occupancy (insn's)
lsq_rate                     0.9130 # avg LSQ dispatch rate (insn/cycle)
lsq_latency                  1.0741 # avg LSQ occupant latency (cycle's)
lsq_full                     0.0056 # fraction of time (cycle's) LSQ was full
sim_slip               2602305291011436165 # total number of slip cycles
avg_sim_slip           1458610332.4895 # the average slip between issue and retirement
bpred_nottaken.lookups    126426024 # total number of bpred lookups
bpred_nottaken.updates     87446102 # total number of updates
bpred_nottaken.addr_hits     19021223 # total number of address-predicted hits
bpred_nottaken.dir_hits     19021223 # total number of direction-predicted hits (includes addr-hits)
bpred_nottaken.misses      68424879 # total number of misses
bpred_nottaken.jr_hits            0 # total number of address-predicted hits for JR's
bpred_nottaken.jr_seen            0 # total number of JR's seen
bpred_nottaken.jr_non_ras_hits.PP            0 # total number of address-predicted hits for non-RAS JR's
bpred_nottaken.jr_non_ras_seen.PP            0 # total number of non-RAS JR's seen
bpred_nottaken.bpred_addr_rate    0.2175 # branch address-prediction rate (i.e., addr-hits/updates)
bpred_nottaken.bpred_dir_rate    0.2175 # branch direction-prediction rate (i.e., all-hits/updates)
bpred_nottaken.bpred_jr_rate <error: divide by zero> # JR address-prediction rate (i.e., JR addr-hits/JRs seen)
bpred_nottaken.bpred_jr_non_ras_rate.PP <error: divide by zero> # non-RAS JR addr-pred rate (ie, non-RAS JR hits/JRs seen)
bpred_nottaken.retstack_pushes            0 # total number of address pushed onto ret-addr stack
bpred_nottaken.retstack_pops            0 # total number of address popped off of ret-addr stack
bpred_nottaken.used_ras.PP            0 # total number of RAS predictions used
bpred_nottaken.ras_hits.PP            0 # total number of RAS hits
bpred_nottaken.ras_rate.PP <error: divide by zero> # RAS prediction rate (i.e., RAS hits/used RAS)
il1.accesses             2083750450 # total number of accesses
il1.hits                 2080995055 # total number of hits
il1.misses                  2755395 # total number of misses
il1.replacements            2754883 # total number of replacements
il1.writebacks                    0 # total number of writebacks
il1.invalidations                 0 # total number of invalidations
il1.miss_rate                0.0013 # miss rate (i.e., misses/ref)
il1.repl_rate                0.0013 # replacement rate (i.e., repls/ref)
il1.wb_rate                  0.0000 # writeback rate (i.e., wrbks/ref)
il1.inv_rate                 0.0000 # invalidation rate (i.e., invs/ref)
dl1.accesses              682190713 # total number of accesses
dl1.hits                  674096729 # total number of hits
dl1.misses                  8093984 # total number of misses
dl1.replacements            8093472 # total number of replacements
dl1.writebacks              5388476 # total number of writebacks
dl1.invalidations                 0 # total number of invalidations
dl1.miss_rate                0.0119 # miss rate (i.e., misses/ref)
dl1.repl_rate                0.0119 # replacement rate (i.e., repls/ref)
dl1.wb_rate                  0.0079 # writeback rate (i.e., wrbks/ref)
dl1.inv_rate                 0.0000 # invalidation rate (i.e., invs/ref)
itlb.accesses            2083750450 # total number of accesses
itlb.hits                2083750400 # total number of hits
itlb.misses                      50 # total number of misses
itlb.replacements                 0 # total number of replacements
itlb.writebacks                   0 # total number of writebacks
itlb.invalidations                0 # total number of invalidations
itlb.miss_rate               0.0000 # miss rate (i.e., misses/ref)
itlb.repl_rate               0.0000 # replacement rate (i.e., repls/ref)
itlb.wb_rate                 0.0000 # writeback rate (i.e., wrbks/ref)
itlb.inv_rate                0.0000 # invalidation rate (i.e., invs/ref)
dtlb.accesses             682191045 # total number of accesses
dtlb.hits                 682190956 # total number of hits
dtlb.misses                      89 # total number of misses
dtlb.replacements                 0 # total number of replacements
dtlb.writebacks                   0 # total number of writebacks
dtlb.invalidations                0 # total number of invalidations
dtlb.miss_rate               0.0000 # miss rate (i.e., misses/ref)
dtlb.repl_rate               0.0000 # replacement rate (i.e., repls/ref)
dtlb.wb_rate                 0.0000 # writeback rate (i.e., wrbks/ref)
dtlb.inv_rate                0.0000 # invalidation rate (i.e., invs/ref)
sim_invalid_addrs                 0 # total non-speculative bogus addresses seen (debug var)
ld_text_base           0x020000c0 # program text (code) segment base
ld_text_bound          0x02048f34 # program text (code) segment bound
ld_text_size                 298612 # program text (code) size in bytes
ld_data_base           0x00002600 # program initialized data segment base
ld_data_bound          0x020691f4 # program initialized data segment bound
ld_data_size               33975284 # program init'ed `.data' and uninit'ed `.bss' size in bytes
ld_stack_base          0xc0000000 # program stack segment base (highest address in stack)
ld_stack_size                 16384 # program initial stack size
ld_prog_entry          0x020000e0 # program entry point (initial PC)
ld_environ_base        0xbfffc000 # program environment base address address
ld_target_big_endian              0 # target executable endian-ness, non-zero if big endian
mem.page_count                  126 # total number of pages allocated
mem.page_mem                   504k # total size of memory pages allocated
mem.ptab_misses                 126 # total first level page table misses
mem.ptab_accesses        9383794244 # total page table accesses
mem.ptab_miss_rate           0.0000 # first level page table miss rate

