sim-outorder -config sa1core.cfg no_blocking
